<?xml version="1.0" encoding="UTF-8"?>

<!-- generated on 2022-04-20 21:25:01 by Eclipse SUMO netconvert Version 1.10.0
<configuration xmlns:xsi="http://www.w3.org/2001/XMLSchema-instance" xsi:noNamespaceSchemaLocation="http://sumo.dlr.de/xsd/netconvertConfiguration.xsd">

    <input>
        <osm-files value="map.osm"/>
    </input>

    <output>
        <output-file value="/home/sheldon/Documents/FIIT/TP/maps_new/newyork_25_cars/map.net.xml"/>
    </output>

    <projection>
        <proj.utm value="true"/>
    </projection>

    <report>
        <aggregate-warnings value="5"/>
    </report>

</configuration>
-->

<net version="1.9" junctionCornerDetail="5" limitTurnSpeed="5.50" xmlns:xsi="http://www.w3.org/2001/XMLSchema-instance" xsi:noNamespaceSchemaLocation="http://sumo.dlr.de/xsd/net_file.xsd">

    <location netOffset="-480129.47,-4769825.85" convBoundary="0.00,0.00,3413.81,2229.99" origBoundary="-75.244119,43.080903,-75.202181,43.101010" projParameter="+proj=utm +zone=18 +ellps=WGS84 +datum=WGS84 +units=m +no_defs"/>

    <type id="highway.bridleway" priority="1" numLanes="1" speed="2.78" allow="pedestrian" oneway="1" width="2.00"/>
    <type id="highway.bus_guideway" priority="1" numLanes="1" speed="27.78" allow="bus" oneway="1"/>
    <type id="highway.cycleway" priority="1" numLanes="1" speed="8.33" allow="bicycle" oneway="0" width="1.00"/>
    <type id="highway.footway" priority="1" numLanes="1" speed="2.78" allow="pedestrian" oneway="1" width="2.00"/>
    <type id="highway.ford" priority="1" numLanes="1" speed="2.78" allow="army" oneway="0"/>
    <type id="highway.living_street" priority="2" numLanes="1" speed="2.78" disallow="tram rail_urban rail rail_electric rail_fast ship" oneway="0"/>
    <type id="highway.motorway" priority="14" numLanes="2" speed="39.44" allow="private emergency authority army vip passenger hov taxi bus coach delivery truck trailer motorcycle evehicle custom1 custom2" oneway="1"/>
    <type id="highway.motorway_link" priority="9" numLanes="1" speed="22.22" allow="private emergency authority army vip passenger hov taxi bus coach delivery truck trailer motorcycle evehicle custom1 custom2" oneway="1"/>
    <type id="highway.path" priority="1" numLanes="1" speed="2.78" allow="pedestrian bicycle" oneway="0" width="2.00"/>
    <type id="highway.pedestrian" priority="1" numLanes="1" speed="2.78" allow="pedestrian" oneway="1" width="2.00"/>
    <type id="highway.primary" priority="12" numLanes="2" speed="27.78" disallow="tram rail_urban rail rail_electric rail_fast ship" oneway="0"/>
    <type id="highway.primary_link" priority="7" numLanes="1" speed="22.22" disallow="tram rail_urban rail rail_electric rail_fast ship" oneway="0"/>
    <type id="highway.raceway" priority="15" numLanes="2" speed="83.33" allow="vip" oneway="0"/>
    <type id="highway.residential" priority="3" numLanes="1" speed="13.89" disallow="tram rail_urban rail rail_electric rail_fast ship" oneway="0"/>
    <type id="highway.secondary" priority="11" numLanes="1" speed="27.78" disallow="tram rail_urban rail rail_electric rail_fast ship" oneway="0"/>
    <type id="highway.secondary_link" priority="6" numLanes="1" speed="22.22" disallow="tram rail_urban rail rail_electric rail_fast ship" oneway="0"/>
    <type id="highway.service" priority="1" numLanes="1" speed="5.56" allow="pedestrian delivery bicycle" oneway="0"/>
    <type id="highway.stairs" priority="1" numLanes="1" speed="1.39" allow="pedestrian" oneway="1" width="2.00"/>
    <type id="highway.step" priority="1" numLanes="1" speed="1.39" allow="pedestrian" oneway="1" width="2.00"/>
    <type id="highway.steps" priority="1" numLanes="1" speed="1.39" allow="pedestrian" oneway="1" width="2.00"/>
    <type id="highway.tertiary" priority="10" numLanes="1" speed="22.22" disallow="tram rail_urban rail rail_electric rail_fast ship" oneway="0"/>
    <type id="highway.tertiary_link" priority="5" numLanes="1" speed="22.22" disallow="tram rail_urban rail rail_electric rail_fast ship" oneway="0"/>
    <type id="highway.track" priority="1" numLanes="1" speed="5.56" allow="pedestrian motorcycle moped bicycle" oneway="0"/>
    <type id="highway.trunk" priority="13" numLanes="2" speed="27.78" disallow="pedestrian bicycle tram rail_urban rail rail_electric rail_fast ship" oneway="0"/>
    <type id="highway.trunk_link" priority="8" numLanes="1" speed="22.22" disallow="pedestrian bicycle tram rail_urban rail rail_electric rail_fast ship" oneway="0"/>
    <type id="highway.unclassified" priority="4" numLanes="1" speed="13.89" disallow="tram rail_urban rail rail_electric rail_fast ship" oneway="0"/>
    <type id="highway.unsurfaced" priority="1" numLanes="1" speed="8.33" disallow="tram rail_urban rail rail_electric rail_fast ship" oneway="0"/>
    <type id="railway.highspeed" priority="21" numLanes="1" speed="69.44" allow="rail_fast" oneway="1"/>
    <type id="railway.light_rail" priority="19" numLanes="1" speed="27.78" allow="rail_urban" oneway="1"/>
    <type id="railway.preserved" priority="16" numLanes="1" speed="27.78" allow="rail" oneway="1"/>
    <type id="railway.rail" priority="20" numLanes="1" speed="44.44" allow="rail" oneway="1"/>
    <type id="railway.subway" priority="18" numLanes="1" speed="27.78" allow="rail_urban" oneway="1"/>
    <type id="railway.tram" priority="17" numLanes="1" speed="13.89" allow="tram" oneway="1"/>

    <edge id=":212870063_0" function="internal">
        <lane id=":212870063_0_0" index="0" disallow="tram rail_urban rail rail_electric rail_fast ship" speed="3.65" length="4.67" shape="387.91,171.06 387.90,169.62 388.34,168.84 389.23,168.73 390.56,169.28"/>
    </edge>
    <edge id=":212898237_0" function="internal">
        <lane id=":212898237_0_0" index="0" disallow="tram rail_urban rail rail_electric rail_fast ship" speed="3.65" length="4.67" shape="466.36,1635.31 464.92,1635.26 464.15,1634.80 464.07,1633.91 464.66,1632.59"/>
    </edge>
    <edge id=":212898243_0" function="internal">
        <lane id=":212898243_0_0" index="0" disallow="tram rail_urban rail rail_electric rail_fast ship" speed="6.49" length="9.03" shape="621.61,1538.93 619.69,1540.50 618.73,1542.30 618.75,1544.34 619.73,1546.61"/>
    </edge>
    <edge id=":212898243_1" function="internal">
        <lane id=":212898243_1_0" index="0" disallow="tram rail_urban rail rail_electric rail_fast ship" speed="13.89" length="11.20" shape="621.61,1538.93 612.01,1544.70"/>
    </edge>
    <edge id=":212898243_2" function="internal">
        <lane id=":212898243_2_0" index="0" disallow="tram rail_urban rail rail_electric rail_fast ship" speed="3.65" length="2.34" shape="621.61,1538.93 620.16,1538.86 619.41,1538.39"/>
    </edge>
    <edge id=":212898243_6" function="internal">
        <lane id=":212898243_6_0" index="0" disallow="tram rail_urban rail rail_electric rail_fast ship" speed="3.65" length="2.34" shape="619.41,1538.39 619.34,1537.49 619.95,1536.19"/>
    </edge>
    <edge id=":212898243_3" function="internal">
        <lane id=":212898243_3_0" index="0" disallow="tram rail_urban rail rail_electric rail_fast ship" speed="13.89" length="11.19" shape="610.37,1541.96 619.95,1536.19"/>
    </edge>
    <edge id=":212898243_4" function="internal">
        <lane id=":212898243_4_0" index="0" disallow="tram rail_urban rail rail_electric rail_fast ship" speed="7.35" length="4.02" shape="610.37,1541.96 612.74,1541.18 614.23,1541.50"/>
    </edge>
    <edge id=":212898243_5" function="internal">
        <lane id=":212898243_5_0" index="0" disallow="tram rail_urban rail rail_electric rail_fast ship" speed="3.65" length="2.34" shape="610.37,1541.96 611.81,1542.02 612.56,1542.51"/>
    </edge>
    <edge id=":212898243_7" function="internal">
        <lane id=":212898243_7_0" index="0" disallow="tram rail_urban rail rail_electric rail_fast ship" speed="7.35" length="7.71" shape="614.23,1541.50 615.09,1541.69 617.42,1543.50 619.73,1546.61"/>
    </edge>
    <edge id=":212898243_8" function="internal">
        <lane id=":212898243_8_0" index="0" disallow="tram rail_urban rail rail_electric rail_fast ship" speed="3.65" length="2.34" shape="612.56,1542.51 612.63,1543.40 612.01,1544.70"/>
    </edge>
    <edge id=":212898245_0" function="internal">
        <lane id=":212898245_0_0" index="0" disallow="tram rail_urban rail rail_electric rail_fast ship" speed="6.57" length="9.13" shape="692.76,1502.59 691.16,1500.68 689.32,1499.72 687.25,1499.73 684.96,1500.71"/>
    </edge>
    <edge id=":212898245_1" function="internal">
        <lane id=":212898245_1_0" index="0" disallow="tram rail_urban rail rail_electric rail_fast ship" speed="13.89" length="14.45" shape="692.76,1502.59 685.19,1490.28"/>
    </edge>
    <edge id=":212898245_2" function="internal">
        <lane id=":212898245_2_0" index="0" disallow="tram rail_urban rail rail_electric rail_fast ship" speed="7.99" length="14.22" shape="692.76,1502.59 691.19,1499.02 691.15,1495.81 692.63,1492.96 695.64,1490.48"/>
    </edge>
    <edge id=":212898245_3" function="internal">
        <lane id=":212898245_3_0" index="0" disallow="tram rail_urban rail rail_electric rail_fast ship" speed="3.65" length="4.67" shape="692.76,1502.59 692.81,1501.15 693.28,1500.39 694.17,1500.30 695.48,1500.90"/>
    </edge>
    <edge id=":212898245_4" function="internal">
        <lane id=":212898245_4_0" index="0" disallow="tram rail_urban rail rail_electric rail_fast ship" speed="6.49" length="9.03" shape="697.31,1493.21 695.40,1494.79 694.45,1496.60 694.48,1498.63 695.48,1500.90"/>
    </edge>
    <edge id=":212898245_5" function="internal">
        <lane id=":212898245_5_0" index="0" disallow="tram rail_urban rail rail_electric rail_fast ship" speed="13.89" length="14.45" shape="697.31,1493.21 684.96,1500.71"/>
    </edge>
    <edge id=":212898245_6" function="internal">
        <lane id=":212898245_6_0" index="0" disallow="tram rail_urban rail rail_electric rail_fast ship" speed="8.01" length="5.97" shape="697.31,1493.21 693.72,1494.75 691.65,1494.77"/>
    </edge>
    <edge id=":212898245_7" function="internal">
        <lane id=":212898245_7_0" index="0" disallow="tram rail_urban rail rail_electric rail_fast ship" speed="3.65" length="2.34" shape="697.31,1493.21 695.86,1493.15 695.11,1492.68"/>
    </edge>
    <edge id=":212898245_16" function="internal">
        <lane id=":212898245_16_0" index="0" disallow="tram rail_urban rail rail_electric rail_fast ship" speed="8.01" length="8.25" shape="691.65,1494.77 690.51,1494.78 687.66,1493.29 685.19,1490.28"/>
    </edge>
    <edge id=":212898245_17" function="internal">
        <lane id=":212898245_17_0" index="0" disallow="tram rail_urban rail rail_electric rail_fast ship" speed="3.65" length="2.34" shape="695.11,1492.68 695.03,1491.79 695.64,1490.48"/>
    </edge>
    <edge id=":212898245_8" function="internal">
        <lane id=":212898245_8_0" index="0" disallow="tram rail_urban rail rail_electric rail_fast ship" speed="6.51" length="9.05" shape="687.92,1488.62 689.50,1490.53 691.31,1491.48 693.36,1491.46 695.64,1490.48"/>
    </edge>
    <edge id=":212898245_9" function="internal">
        <lane id=":212898245_9_0" index="0" disallow="tram rail_urban rail rail_electric rail_fast ship" speed="13.89" length="14.42" shape="687.92,1488.62 695.48,1500.90"/>
    </edge>
    <edge id=":212898245_10" function="internal">
        <lane id=":212898245_10_0" index="0" disallow="tram rail_urban rail rail_electric rail_fast ship" speed="7.99" length="14.21" shape="687.92,1488.62 689.46,1492.20 689.47,1495.41 687.97,1498.24 684.96,1500.71"/>
    </edge>
    <edge id=":212898245_11" function="internal">
        <lane id=":212898245_11_0" index="0" disallow="tram rail_urban rail rail_electric rail_fast ship" speed="3.65" length="4.67" shape="687.92,1488.62 687.86,1490.06 687.39,1490.82 686.49,1490.89 685.19,1490.28"/>
    </edge>
    <edge id=":212898245_12" function="internal">
        <lane id=":212898245_12_0" index="0" disallow="tram rail_urban rail rail_electric rail_fast ship" speed="6.50" length="9.03" shape="683.30,1497.97 685.22,1496.40 686.18,1494.60 686.16,1492.56 685.19,1490.28"/>
    </edge>
    <edge id=":212898245_13" function="internal">
        <lane id=":212898245_13_0" index="0" disallow="tram rail_urban rail rail_electric rail_fast ship" speed="13.89" length="14.43" shape="683.30,1497.97 695.64,1490.48"/>
    </edge>
    <edge id=":212898245_14" function="internal">
        <lane id=":212898245_14_0" index="0" disallow="tram rail_urban rail rail_electric rail_fast ship" speed="8.05" length="5.91" shape="683.30,1497.97 686.89,1496.45 688.91,1496.44"/>
    </edge>
    <edge id=":212898245_15" function="internal">
        <lane id=":212898245_15_0" index="0" disallow="tram rail_urban rail rail_electric rail_fast ship" speed="3.65" length="2.34" shape="683.30,1497.97 684.74,1498.03 685.50,1498.51"/>
    </edge>
    <edge id=":212898245_18" function="internal">
        <lane id=":212898245_18_0" index="0" disallow="tram rail_urban rail rail_electric rail_fast ship" speed="8.05" length="8.33" shape="688.91,1496.44 690.11,1496.43 692.98,1497.91 695.48,1500.90"/>
    </edge>
    <edge id=":212898245_19" function="internal">
        <lane id=":212898245_19_0" index="0" disallow="tram rail_urban rail rail_electric rail_fast ship" speed="3.65" length="2.34" shape="685.50,1498.51 685.57,1499.40 684.96,1500.71"/>
    </edge>
    <edge id=":212898246_0" function="internal">
        <lane id=":212898246_0_0" index="0" disallow="tram rail_urban rail rail_electric rail_fast ship" speed="6.52" length="9.06" shape="768.26,1456.40 766.68,1454.49 764.87,1453.55 762.82,1453.57 760.54,1454.56"/>
    </edge>
    <edge id=":212898246_1" function="internal">
        <lane id=":212898246_1_0" index="0" disallow="tram rail_urban rail rail_electric rail_fast ship" speed="13.89" length="14.42" shape="768.26,1456.40 760.69,1444.13"/>
    </edge>
    <edge id=":212898246_2" function="internal">
        <lane id=":212898246_2_0" index="0" disallow="tram rail_urban rail rail_electric rail_fast ship" speed="8.00" length="14.19" shape="768.26,1456.40 766.72,1452.83 766.69,1449.62 768.18,1446.78 771.17,1444.30"/>
    </edge>
    <edge id=":212898246_3" function="internal">
        <lane id=":212898246_3_0" index="0" disallow="tram rail_urban rail rail_electric rail_fast ship" speed="3.65" length="4.67" shape="768.26,1456.40 768.32,1454.96 768.79,1454.20 769.68,1454.12 770.99,1454.73"/>
    </edge>
    <edge id=":212898246_4" function="internal">
        <lane id=":212898246_4_0" index="0" disallow="tram rail_urban rail rail_electric rail_fast ship" speed="6.51" length="9.03" shape="772.84,1447.03 770.94,1448.61 769.99,1450.42 770.01,1452.46 770.99,1454.73"/>
    </edge>
    <edge id=":212898246_5" function="internal">
        <lane id=":212898246_5_0" index="0" disallow="tram rail_urban rail rail_electric rail_fast ship" speed="13.89" length="14.43" shape="772.84,1447.03 760.54,1454.56"/>
    </edge>
    <edge id=":212898246_6" function="internal">
        <lane id=":212898246_6_0" index="0" disallow="tram rail_urban rail rail_electric rail_fast ship" speed="8.03" length="5.93" shape="772.84,1447.03 769.27,1448.57 767.23,1448.59"/>
    </edge>
    <edge id=":212898246_7" function="internal">
        <lane id=":212898246_7_0" index="0" disallow="tram rail_urban rail rail_electric rail_fast ship" speed="3.65" length="2.34" shape="772.84,1447.03 771.40,1446.97 770.64,1446.50"/>
    </edge>
    <edge id=":212898246_16" function="internal">
        <lane id=":212898246_16_0" index="0" disallow="tram rail_urban rail rail_electric rail_fast ship" speed="8.03" length="8.29" shape="767.23,1448.59 766.06,1448.60 763.20,1447.12 760.69,1444.13"/>
    </edge>
    <edge id=":212898246_17" function="internal">
        <lane id=":212898246_17_0" index="0" disallow="tram rail_urban rail rail_electric rail_fast ship" speed="3.65" length="2.34" shape="770.64,1446.50 770.57,1445.61 771.17,1444.30"/>
    </edge>
    <edge id=":212898246_8" function="internal">
        <lane id=":212898246_8_0" index="0" disallow="tram rail_urban rail rail_electric rail_fast ship" speed="6.54" length="9.09" shape="763.41,1442.44 765.01,1444.35 766.84,1445.30 768.89,1445.28 771.17,1444.30"/>
    </edge>
    <edge id=":212898246_9" function="internal">
        <lane id=":212898246_9_0" index="0" disallow="tram rail_urban rail rail_electric rail_fast ship" speed="13.89" length="14.44" shape="763.41,1442.44 770.99,1454.73"/>
    </edge>
    <edge id=":212898246_10" function="internal">
        <lane id=":212898246_10_0" index="0" disallow="tram rail_urban rail rail_electric rail_fast ship" speed="7.99" length="14.22" shape="763.41,1442.44 764.98,1446.02 765.02,1449.22 763.54,1452.07 760.54,1454.56"/>
    </edge>
    <edge id=":212898246_11" function="internal">
        <lane id=":212898246_11_0" index="0" disallow="tram rail_urban rail rail_electric rail_fast ship" speed="3.65" length="4.67" shape="763.41,1442.44 763.36,1443.89 762.90,1444.65 762.01,1444.73 760.69,1444.13"/>
    </edge>
    <edge id=":212898246_12" function="internal">
        <lane id=":212898246_12_0" index="0" disallow="tram rail_urban rail rail_electric rail_fast ship" speed="6.49" length="9.03" shape="758.87,1451.83 760.78,1450.25 761.72,1448.44 761.69,1446.40 760.69,1444.13"/>
    </edge>
    <edge id=":212898246_13" function="internal">
        <lane id=":212898246_13_0" index="0" disallow="tram rail_urban rail rail_electric rail_fast ship" speed="13.89" length="14.43" shape="758.87,1451.83 771.17,1444.30"/>
    </edge>
    <edge id=":212898246_14" function="internal">
        <lane id=":212898246_14_0" index="0" disallow="tram rail_urban rail rail_electric rail_fast ship" speed="8.01" length="5.94" shape="758.87,1451.83 762.45,1450.28 764.49,1450.26"/>
    </edge>
    <edge id=":212898246_15" function="internal">
        <lane id=":212898246_15_0" index="0" disallow="tram rail_urban rail rail_electric rail_fast ship" speed="3.65" length="2.34" shape="758.87,1451.83 760.31,1451.88 761.07,1452.36"/>
    </edge>
    <edge id=":212898246_18" function="internal">
        <lane id=":212898246_18_0" index="0" disallow="tram rail_urban rail rail_electric rail_fast ship" speed="8.01" length="8.27" shape="764.49,1450.26 765.66,1450.25 768.51,1451.73 770.99,1454.73"/>
    </edge>
    <edge id=":212898246_19" function="internal">
        <lane id=":212898246_19_0" index="0" disallow="tram rail_urban rail rail_electric rail_fast ship" speed="3.65" length="2.34" shape="761.07,1452.36 761.14,1453.25 760.54,1454.56"/>
    </edge>
    <edge id=":212898247_0" function="internal">
        <lane id=":212898247_0_0" index="0" disallow="tram rail_urban rail rail_electric rail_fast ship" speed="6.51" length="9.03" shape="843.57,1410.33 841.99,1408.42 840.18,1407.48 838.14,1407.49 835.87,1408.48"/>
    </edge>
    <edge id=":212898247_1" function="internal">
        <lane id=":212898247_1_0" index="0" disallow="tram rail_urban rail rail_electric rail_fast ship" speed="13.89" length="14.40" shape="843.57,1410.33 836.04,1398.05"/>
    </edge>
    <edge id=":212898247_2" function="internal">
        <lane id=":212898247_2_0" index="0" disallow="tram rail_urban rail rail_electric rail_fast ship" speed="8.01" length="14.20" shape="843.57,1410.33 842.03,1406.76 842.00,1403.55 843.49,1400.70 846.48,1398.22"/>
    </edge>
    <edge id=":212898247_3" function="internal">
        <lane id=":212898247_3_0" index="0" disallow="tram rail_urban rail rail_electric rail_fast ship" speed="3.65" length="4.67" shape="843.57,1410.33 843.63,1408.89 844.10,1408.13 844.99,1408.06 846.30,1408.66"/>
    </edge>
    <edge id=":212898247_4" function="internal">
        <lane id=":212898247_4_0" index="0" disallow="tram rail_urban rail rail_electric rail_fast ship" speed="6.52" length="9.04" shape="848.15,1400.95 846.25,1402.53 845.30,1404.34 845.32,1406.39 846.30,1408.66"/>
    </edge>
    <edge id=":212898247_5" function="internal">
        <lane id=":212898247_5_0" index="0" disallow="tram rail_urban rail rail_electric rail_fast ship" speed="13.89" length="14.41" shape="848.15,1400.95 835.87,1408.48"/>
    </edge>
    <edge id=":212898247_6" function="internal">
        <lane id=":212898247_6_0" index="0" disallow="tram rail_urban rail rail_electric rail_fast ship" speed="8.01" length="5.93" shape="848.15,1400.95 844.58,1402.49 842.54,1402.51"/>
    </edge>
    <edge id=":212898247_7" function="internal">
        <lane id=":212898247_7_0" index="0" disallow="tram rail_urban rail rail_electric rail_fast ship" speed="3.65" length="2.34" shape="848.15,1400.95 846.71,1400.89 845.95,1400.42"/>
    </edge>
    <edge id=":212898247_16" function="internal">
        <lane id=":212898247_16_0" index="0" disallow="tram rail_urban rail rail_electric rail_fast ship" speed="8.01" length="8.26" shape="842.54,1402.51 841.38,1402.52 838.53,1401.04 836.04,1398.05"/>
    </edge>
    <edge id=":212898247_17" function="internal">
        <lane id=":212898247_17_0" index="0" disallow="tram rail_urban rail rail_electric rail_fast ship" speed="3.65" length="2.34" shape="845.95,1400.42 845.87,1399.53 846.48,1398.22"/>
    </edge>
    <edge id=":212898247_8" function="internal">
        <lane id=":212898247_8_0" index="0" disallow="tram rail_urban rail rail_electric rail_fast ship" speed="6.51" length="9.04" shape="838.77,1396.37 840.35,1398.28 842.17,1399.22 844.21,1399.20 846.48,1398.22"/>
    </edge>
    <edge id=":212898247_9" function="internal">
        <lane id=":212898247_9_0" index="0" disallow="tram rail_urban rail rail_electric rail_fast ship" speed="13.89" length="14.41" shape="838.77,1396.37 846.30,1408.66"/>
    </edge>
    <edge id=":212898247_10" function="internal">
        <lane id=":212898247_10_0" index="0" disallow="tram rail_urban rail rail_electric rail_fast ship" speed="8.00" length="14.20" shape="838.77,1396.37 840.32,1399.94 840.35,1403.15 838.87,1405.99 835.87,1408.48"/>
    </edge>
    <edge id=":212898247_11" function="internal">
        <lane id=":212898247_11_0" index="0" disallow="tram rail_urban rail rail_electric rail_fast ship" speed="3.65" length="4.67" shape="838.77,1396.37 838.72,1397.81 838.24,1398.57 837.35,1398.65 836.04,1398.05"/>
    </edge>
    <edge id=":212898247_12" function="internal">
        <lane id=":212898247_12_0" index="0" disallow="tram rail_urban rail rail_electric rail_fast ship" speed="6.50" length="9.03" shape="834.20,1405.75 836.11,1404.17 837.05,1402.36 837.03,1400.32 836.04,1398.05"/>
    </edge>
    <edge id=":212898247_13" function="internal">
        <lane id=":212898247_13_0" index="0" disallow="tram rail_urban rail rail_electric rail_fast ship" speed="13.89" length="14.40" shape="834.20,1405.75 846.48,1398.22"/>
    </edge>
    <edge id=":212898247_14" function="internal">
        <lane id=":212898247_14_0" index="0" disallow="tram rail_urban rail rail_electric rail_fast ship" speed="8.00" length="5.92" shape="834.20,1405.75 837.77,1404.20 839.80,1404.19"/>
    </edge>
    <edge id=":212898247_15" function="internal">
        <lane id=":212898247_15_0" index="0" disallow="tram rail_urban rail rail_electric rail_fast ship" speed="3.65" length="2.34" shape="834.20,1405.75 835.64,1405.80 836.40,1406.28"/>
    </edge>
    <edge id=":212898247_18" function="internal">
        <lane id=":212898247_18_0" index="0" disallow="tram rail_urban rail rail_electric rail_fast ship" speed="8.00" length="8.27" shape="839.80,1404.19 840.98,1404.18 843.82,1405.66 846.30,1408.66"/>
    </edge>
    <edge id=":212898247_19" function="internal">
        <lane id=":212898247_19_0" index="0" disallow="tram rail_urban rail rail_electric rail_fast ship" speed="3.65" length="2.34" shape="836.40,1406.28 836.47,1407.17 835.87,1408.48"/>
    </edge>
    <edge id=":212898249_0" function="internal">
        <lane id=":212898249_0_0" index="0" disallow="tram rail_urban rail rail_electric rail_fast ship" speed="6.50" length="9.04" shape="925.37,1360.14 923.80,1358.23 921.99,1357.29 919.95,1357.31 917.67,1358.29"/>
    </edge>
    <edge id=":212898249_1" function="internal">
        <lane id=":212898249_1_0" index="0" disallow="tram rail_urban rail rail_electric rail_fast ship" speed="13.89" length="14.42" shape="925.37,1360.14 917.81,1347.87"/>
    </edge>
    <edge id=":212898249_2" function="internal">
        <lane id=":212898249_2_0" index="0" disallow="tram rail_urban rail rail_electric rail_fast ship" speed="8.04" length="14.21" shape="925.37,1360.14 923.84,1356.57 923.81,1353.35 925.28,1350.49 928.26,1347.99"/>
    </edge>
    <edge id=":212898249_3" function="internal">
        <lane id=":212898249_3_0" index="0" disallow="tram rail_urban rail rail_electric rail_fast ship" speed="3.65" length="4.67" shape="925.37,1360.14 925.44,1358.70 925.91,1357.95 926.80,1357.87 928.11,1358.48"/>
    </edge>
    <edge id=":212898249_4" function="internal">
        <lane id=":212898249_4_0" index="0" disallow="tram rail_urban rail rail_electric rail_fast ship" speed="6.55" length="9.09" shape="929.95,1350.71 928.05,1352.30 927.11,1354.13 927.13,1356.19 928.11,1358.48"/>
    </edge>
    <edge id=":212898249_5" function="internal">
        <lane id=":212898249_5_0" index="0" disallow="tram rail_urban rail rail_electric rail_fast ship" speed="13.89" length="14.43" shape="929.95,1350.71 917.67,1358.29"/>
    </edge>
    <edge id=":212898249_6" function="internal">
        <lane id=":212898249_6_0" index="0" disallow="tram rail_urban rail rail_electric rail_fast ship" speed="8.01" length="5.96" shape="929.95,1350.71 926.39,1352.27 924.32,1352.30"/>
    </edge>
    <edge id=":212898249_7" function="internal">
        <lane id=":212898249_7_0" index="0" disallow="tram rail_urban rail rail_electric rail_fast ship" speed="3.65" length="2.34" shape="929.95,1350.71 928.51,1350.66 927.75,1350.19"/>
    </edge>
    <edge id=":212898249_16" function="internal">
        <lane id=":212898249_16_0" index="0" disallow="tram rail_urban rail rail_electric rail_fast ship" speed="8.01" length="8.26" shape="924.32,1352.30 923.18,1352.32 920.32,1350.85 917.81,1347.87"/>
    </edge>
    <edge id=":212898249_17" function="internal">
        <lane id=":212898249_17_0" index="0" disallow="tram rail_urban rail rail_electric rail_fast ship" speed="3.65" length="2.34" shape="927.75,1350.19 927.66,1349.30 928.26,1347.99"/>
    </edge>
    <edge id=":212898249_8" function="internal">
        <lane id=":212898249_8_0" index="0" disallow="tram rail_urban rail rail_electric rail_fast ship" speed="6.52" length="9.06" shape="920.52,1346.17 922.13,1348.08 923.95,1349.01 925.99,1348.98 928.26,1347.99"/>
    </edge>
    <edge id=":212898249_9" function="internal">
        <lane id=":212898249_9_0" index="0" disallow="tram rail_urban rail rail_electric rail_fast ship" speed="13.89" length="14.46" shape="920.52,1346.17 928.11,1358.48"/>
    </edge>
    <edge id=":212898249_10" function="internal">
        <lane id=":212898249_10_0" index="0" disallow="tram rail_urban rail rail_electric rail_fast ship" speed="7.99" length="14.22" shape="920.52,1346.17 922.10,1349.74 922.15,1352.95 920.68,1355.80 917.67,1358.29"/>
    </edge>
    <edge id=":212898249_11" function="internal">
        <lane id=":212898249_11_0" index="0" disallow="tram rail_urban rail rail_electric rail_fast ship" speed="3.65" length="4.67" shape="920.52,1346.17 920.48,1347.61 920.01,1348.38 919.12,1348.46 917.81,1347.87"/>
    </edge>
    <edge id=":212898249_12" function="internal">
        <lane id=":212898249_12_0" index="0" disallow="tram rail_urban rail rail_electric rail_fast ship" speed="6.49" length="9.03" shape="916.00,1355.56 917.91,1353.98 918.84,1352.17 918.81,1350.13 917.81,1347.87"/>
    </edge>
    <edge id=":212898249_13" function="internal">
        <lane id=":212898249_13_0" index="0" disallow="tram rail_urban rail rail_electric rail_fast ship" speed="13.89" length="14.41" shape="916.00,1355.56 928.26,1347.99"/>
    </edge>
    <edge id=":212898249_14" function="internal">
        <lane id=":212898249_14_0" index="0" disallow="tram rail_urban rail rail_electric rail_fast ship" speed="8.00" length="5.90" shape="916.00,1355.56 919.58,1354.01 921.58,1354.00"/>
    </edge>
    <edge id=":212898249_15" function="internal">
        <lane id=":212898249_15_0" index="0" disallow="tram rail_urban rail rail_electric rail_fast ship" speed="3.65" length="2.34" shape="916.00,1355.56 917.44,1355.62 918.20,1356.09"/>
    </edge>
    <edge id=":212898249_18" function="internal">
        <lane id=":212898249_18_0" index="0" disallow="tram rail_urban rail rail_electric rail_fast ship" speed="8.00" length="8.32" shape="921.58,1354.00 922.79,1353.98 925.63,1355.47 928.11,1358.48"/>
    </edge>
    <edge id=":212898249_19" function="internal">
        <lane id=":212898249_19_0" index="0" disallow="tram rail_urban rail rail_electric rail_fast ship" speed="3.65" length="2.34" shape="918.20,1356.09 918.28,1356.98 917.67,1358.29"/>
    </edge>
    <edge id=":212898251_0" function="internal">
        <lane id=":212898251_0_0" index="0" disallow="tram rail_urban rail rail_electric rail_fast ship" speed="6.49" length="9.03" shape="999.42,1314.07 997.84,1312.16 996.03,1311.23 993.99,1311.26 991.73,1312.25"/>
    </edge>
    <edge id=":212898251_1" function="internal">
        <lane id=":212898251_1_0" index="0" disallow="tram rail_urban rail rail_electric rail_fast ship" speed="13.89" length="14.41" shape="999.42,1314.07 991.87,1301.81"/>
    </edge>
    <edge id=":212898251_2" function="internal">
        <lane id=":212898251_2_0" index="0" disallow="tram rail_urban rail rail_electric rail_fast ship" speed="8.00" length="5.92" shape="999.42,1314.07 997.87,1310.49 997.85,1308.48"/>
    </edge>
    <edge id=":212898251_3" function="internal">
        <lane id=":212898251_3_0" index="0" disallow="tram rail_urban rail rail_electric rail_fast ship" speed="3.65" length="2.34" shape="999.42,1314.07 999.48,1312.63 999.95,1311.87"/>
    </edge>