<?xml version="1.0" encoding="UTF-8"?>

<!-- generated on 2022-04-20 21:14:46 by Eclipse SUMO netconvert Version 1.10.0
<configuration xmlns:xsi="http://www.w3.org/2001/XMLSchema-instance" xsi:noNamespaceSchemaLocation="http://sumo.dlr.de/xsd/netconvertConfiguration.xsd">

    <input>
        <osm-files value="map.osm"/>
    </input>

    <output>
        <output-file value="/home/sheldon/Documents/FIIT/TP/maps_new/california/map.net.xml"/>
    </output>

    <projection>
        <proj.utm value="true"/>
    </projection>

    <report>
        <aggregate-warnings value="5"/>
    </report>

</configuration>
-->

<net version="1.9" junctionCornerDetail="5" limitTurnSpeed="5.50" xmlns:xsi="http://www.w3.org/2001/XMLSchema-instance" xsi:noNamespaceSchemaLocation="http://sumo.dlr.de/xsd/net_file.xsd">

    <location netOffset="-641498.19,-4078297.02" convBoundary="0.00,0.00,1137.20,1723.52" origBoundary="-121.412838,36.839894,-121.400091,36.855473" projParameter="+proj=utm +zone=10 +ellps=WGS84 +datum=WGS84 +units=m +no_defs"/>

    <type id="highway.bridleway" priority="1" numLanes="1" speed="2.78" allow="pedestrian" oneway="1" width="2.00"/>
    <type id="highway.bus_guideway" priority="1" numLanes="1" speed="27.78" allow="bus" oneway="1"/>
    <type id="highway.cycleway" priority="1" numLanes="1" speed="8.33" allow="bicycle" oneway="0" width="1.00"/>
    <type id="highway.footway" priority="1" numLanes="1" speed="2.78" allow="pedestrian" oneway="1" width="2.00"/>
    <type id="highway.ford" priority="1" numLanes="1" speed="2.78" allow="army" oneway="0"/>
    <type id="highway.living_street" priority="2" numLanes="1" speed="2.78" disallow="tram rail_urban rail rail_electric rail_fast ship" oneway="0"/>
    <type id="highway.motorway" priority="14" numLanes="2" speed="39.44" allow="private emergency authority army vip passenger hov taxi bus coach delivery truck trailer motorcycle evehicle custom1 custom2" oneway="1"/>
    <type id="highway.motorway_link" priority="9" numLanes="1" speed="22.22" allow="private emergency authority army vip passenger hov taxi bus coach delivery truck trailer motorcycle evehicle custom1 custom2" oneway="1"/>
    <type id="highway.path" priority="1" numLanes="1" speed="2.78" allow="pedestrian bicycle" oneway="0" width="2.00"/>
    <type id="highway.pedestrian" priority="1" numLanes="1" speed="2.78" allow="pedestrian" oneway="1" width="2.00"/>
    <type id="highway.primary" priority="12" numLanes="2" speed="27.78" disallow="tram rail_urban rail rail_electric rail_fast ship" oneway="0"/>
    <type id="highway.primary_link" priority="7" numLanes="1" speed="22.22" disallow="tram rail_urban rail rail_electric rail_fast ship" oneway="0"/>
    <type id="highway.raceway" priority="15" numLanes="2" speed="83.33" allow="vip" oneway="0"/>
    <type id="highway.residential" priority="3" numLanes="1" speed="13.89" disallow="tram rail_urban rail rail_electric rail_fast ship" oneway="0"/>
    <type id="highway.secondary" priority="11" numLanes="1" speed="27.78" disallow="tram rail_urban rail rail_electric rail_fast ship" oneway="0"/>
    <type id="highway.secondary_link" priority="6" numLanes="1" speed="22.22" disallow="tram rail_urban rail rail_electric rail_fast ship" oneway="0"/>
    <type id="highway.service" priority="1" numLanes="1" speed="5.56" allow="pedestrian delivery bicycle" oneway="0"/>
    <type id="highway.stairs" priority="1" numLanes="1" speed="1.39" allow="pedestrian" oneway="1" width="2.00"/>
    <type id="highway.step" priority="1" numLanes="1" speed="1.39" allow="pedestrian" oneway="1" width="2.00"/>
    <type id="highway.steps" priority="1" numLanes="1" speed="1.39" allow="pedestrian" oneway="1" width="2.00"/>
    <type id="highway.tertiary" priority="10" numLanes="1" speed="22.22" disallow="tram rail_urban rail rail_electric rail_fast ship" oneway="0"/>
    <type id="highway.tertiary_link" priority="5" numLanes="1" speed="22.22" disallow="tram rail_urban rail rail_electric rail_fast ship" oneway="0"/>
    <type id="highway.track" priority="1" numLanes="1" speed="5.56" allow="pedestrian motorcycle moped bicycle" oneway="0"/>
    <type id="highway.trunk" priority="13" numLanes="2" speed="27.78" disallow="pedestrian bicycle tram rail_urban rail rail_electric rail_fast ship" oneway="0"/>
    <type id="highway.trunk_link" priority="8" numLanes="1" speed="22.22" disallow="pedestrian bicycle tram rail_urban rail rail_electric rail_fast ship" oneway="0"/>
    <type id="highway.unclassified" priority="4" numLanes="1" speed="13.89" disallow="tram rail_urban rail rail_electric rail_fast ship" oneway="0"/>
    <type id="highway.unsurfaced" priority="1" numLanes="1" speed="8.33" disallow="tram rail_urban rail rail_electric rail_fast ship" oneway="0"/>
    <type id="railway.highspeed" priority="21" numLanes="1" speed="69.44" allow="rail_fast" oneway="1"/>
    <type id="railway.light_rail" priority="19" numLanes="1" speed="27.78" allow="rail_urban" oneway="1"/>
    <type id="railway.preserved" priority="16" numLanes="1" speed="27.78" allow="rail" oneway="1"/>
    <type id="railway.rail" priority="20" numLanes="1" speed="44.44" allow="rail" oneway="1"/>
    <type id="railway.subway" priority="18" numLanes="1" speed="27.78" allow="rail_urban" oneway="1"/>
    <type id="railway.tram" priority="17" numLanes="1" speed="13.89" allow="tram" oneway="1"/>

    <edge id=":1270780396_0" function="internal">
        <lane id=":1270780396_0_0" index="0" allow="pedestrian delivery bicycle" speed="5.05" length="5.01" shape="601.64,1355.22 601.43,1353.86 600.83,1352.89 599.86,1352.32 598.50,1352.14"/>
    </edge>
    <edge id=":1270780396_1" function="internal">
        <lane id=":1270780396_1_0" index="0" allow="pedestrian delivery bicycle" speed="5.56" length="10.17" shape="601.64,1355.22 602.00,1352.45 603.15,1350.47 605.11,1349.26 607.86,1348.83"/>
    </edge>
    <edge id=":1270780396_2" function="internal">
        <lane id=":1270780396_2_0" index="0" allow="pedestrian delivery bicycle" speed="3.65" length="4.67" shape="601.64,1355.22 602.42,1354.01 603.22,1353.60 604.02,1353.98 604.84,1355.17"/>
    </edge>
    <edge id=":1270780396_3" function="internal">
        <lane id=":1270780396_3_0" index="0" allow="pedestrian delivery bicycle" speed="5.04" length="5.00" shape="607.90,1352.03 606.54,1352.24 605.58,1352.83 605.02,1353.81 604.84,1355.17"/>
    </edge>
    <edge id=":1270780396_4" function="internal">
        <lane id=":1270780396_4_0" index="0" allow="pedestrian delivery bicycle" speed="5.56" length="9.40" shape="607.90,1352.03 598.50,1352.14"/>
    </edge>
    <edge id=":1270780396_5" function="internal">
        <lane id=":1270780396_5_0" index="0" allow="pedestrian delivery bicycle" speed="3.65" length="4.67" shape="607.90,1352.03 606.69,1351.25 606.28,1350.45 606.67,1349.65 607.86,1348.83"/>
    </edge>
    <edge id=":1270780396_6" function="internal">
        <lane id=":1270780396_6_0" index="0" allow="pedestrian delivery bicycle" speed="5.56" length="9.40" shape="598.46,1348.94 607.86,1348.83"/>
    </edge>
    <edge id=":1270780396_7" function="internal">
        <lane id=":1270780396_7_0" index="0" allow="pedestrian delivery bicycle" speed="5.56" length="10.16" shape="598.46,1348.94 601.22,1349.31 603.20,1350.46 604.41,1352.42 604.84,1355.17"/>
    </edge>
    <edge id=":1270780396_8" function="internal">
        <lane id=":1270780396_8_0" index="0" allow="pedestrian delivery bicycle" speed="3.65" length="4.67" shape="598.46,1348.94 599.67,1349.73 600.08,1350.53 599.69,1351.33 598.50,1352.14"/>
    </edge>
    <edge id=":1270780498_0" function="internal">
        <lane id=":1270780498_0_0" index="0" allow="pedestrian delivery bicycle" speed="5.06" length="5.03" shape="636.50,1388.06 636.29,1386.71 635.69,1385.75 634.70,1385.18 633.33,1385.00"/>
    </edge>
    <edge id=":1270780498_1" function="internal">
        <lane id=":1270780498_1_0" index="0" disallow="tram rail_urban rail rail_electric rail_fast ship" speed="22.22" length="9.40" shape="636.50,1388.06 636.38,1378.66"/>
    </edge>
    <edge id=":1270780498_2" function="internal">
        <lane id=":1270780498_2_0" index="0" disallow="tram rail_urban rail rail_electric rail_fast ship" speed="3.65" length="2.34" shape="636.50,1388.06 637.28,1386.85 638.08,1386.44"/>
    </edge>
    <edge id=":1270780498_9" function="internal">
        <lane id=":1270780498_9_0" index="0" disallow="tram rail_urban rail rail_electric rail_fast ship" speed="3.65" length="2.34" shape="638.08,1386.44 638.88,1386.83 639.70,1388.02"/>
    </edge>
    <edge id=":1270780498_3" function="internal">
        <lane id=":1270780498_3_0" index="0" disallow="tram rail_urban rail rail_electric rail_fast ship" speed="22.22" length="9.40" shape="639.58,1378.62 639.70,1388.02"/>
    </edge>
    <edge id=":1270780498_4" function="internal">
        <lane id=":1270780498_4_0" index="0" allow="pedestrian delivery bicycle" speed="6.86" length="5.10" shape="639.58,1378.62 639.22,1381.39 638.06,1383.38"/>
    </edge>
    <edge id=":1270780498_5" function="internal">
        <lane id=":1270780498_5_0" index="0" disallow="tram rail_urban rail rail_electric rail_fast ship" speed="3.65" length="2.34" shape="639.58,1378.62 638.79,1379.83 638.00,1380.24"/>
    </edge>
    <edge id=":1270780498_10" function="internal">
        <lane id=":1270780498_10_0" index="0" allow="pedestrian delivery bicycle" speed="6.86" length="5.10" shape="638.06,1383.38 636.09,1384.58 633.33,1385.00"/>
    </edge>
    <edge id=":1270780498_11" function="internal">
        <lane id=":1270780498_11_0" index="0" disallow="tram rail_urban rail rail_electric rail_fast ship" speed="3.65" length="2.34" shape="638.00,1380.24 637.19,1379.85 636.38,1378.66"/>
    </edge>
    <edge id=":1270780498_6" function="internal">
        <lane id=":1270780498_6_0" index="0" allow="pedestrian delivery bicycle" speed="5.03" length="5.01" shape="633.31,1381.80 634.66,1381.59 635.63,1381.00 636.20,1380.03 636.38,1378.66"/>
    </edge>
    <edge id=":1270780498_7" function="internal">
        <lane id=":1270780498_7_0" index="0" allow="pedestrian delivery bicycle" speed="6.88" length="10.16" shape="633.31,1381.80 636.07,1382.17 638.06,1383.33 639.27,1385.28 639.70,1388.02"/>
    </edge>
    <edge id=":1270780498_8" function="internal">
        <lane id=":1270780498_8_0" index="0" allow="pedestrian delivery bicycle" speed="3.65" length="4.67" shape="633.31,1381.80 634.51,1382.59 634.92,1383.38 634.52,1384.19 633.33,1385.00"/>
    </edge>
    <edge id=":548009224_0" function="internal">
        <lane id=":548009224_0_0" index="0" disallow="tram rail_urban rail rail_electric rail_fast ship" speed="3.65" length="4.67" shape="625.07,0.01 625.87,-1.20 626.66,-1.60 627.47,-1.20 628.27,-0.01"/>
    </edge>
    <edge id=":8595994011_0" function="internal">
        <lane id=":8595994011_0_0" index="0" disallow="tram rail_urban rail rail_electric rail_fast ship" speed="13.89" length="9.40" shape="396.18,1294.77 386.78,1294.78"/>
    </edge>
    <edge id=":8595994011_1" function="internal">
        <lane id=":8595994011_1_0" index="0" allow="pedestrian delivery bicycle" speed="6.86" length="5.10" shape="396.18,1294.77 393.42,1294.38 391.45,1293.20"/>
    </edge>
    <edge id=":8595994011_2" function="internal">
        <lane id=":8595994011_2_0" index="0" disallow="tram rail_urban rail rail_electric rail_fast ship" speed="3.65" length="2.34" shape="396.18,1294.77 394.98,1293.98 394.58,1293.18"/>
    </edge>
    <edge id=":8595994011_9" function="internal">
        <lane id=":8595994011_9_0" index="0" allow="pedestrian delivery bicycle" speed="6.86" length="5.10" shape="391.45,1293.20 390.27,1291.22 389.89,1288.45"/>
    </edge>
    <edge id=":8595994011_10" function="internal">
        <lane id=":8595994011_10_0" index="0" disallow="tram rail_urban rail rail_electric rail_fast ship" speed="3.65" length="2.34" shape="394.58,1293.18 394.98,1292.38 396.18,1291.57"/>
    </edge>
    <edge id=":8595994011_3" function="internal">
        <lane id=":8595994011_3_0" index="0" allow="pedestrian delivery bicycle" speed="5.03" length="5.01" shape="393.09,1288.47 393.28,1289.83 393.85,1290.80 394.82,1291.38 396.18,1291.57"/>
    </edge>
    <edge id=":8595994011_4" function="internal">
        <lane id=":8595994011_4_0" index="0" allow="pedestrian delivery bicycle" speed="6.88" length="10.16" shape="393.09,1288.47 392.68,1291.23 391.50,1293.20 389.53,1294.39 386.78,1294.78"/>
    </edge>
    <edge id=":8595994011_5" function="internal">
        <lane id=":8595994011_5_0" index="0" allow="pedestrian delivery bicycle" speed="3.65" length="4.67" shape="393.09,1288.47 392.28,1289.66 391.48,1290.06 390.68,1289.65 389.89,1288.45"/>
    </edge>
    <edge id=":8595994011_6" function="internal">
        <lane id=":8595994011_6_0" index="0" allow="pedestrian delivery bicycle" speed="5.06" length="5.02" shape="386.78,1291.58 388.13,1291.39 389.10,1290.80 389.69,1289.82 389.89,1288.45"/>
    </edge>
    <edge id=":8595994011_7" function="internal">
        <lane id=":8595994011_7_0" index="0" disallow="tram rail_urban rail rail_electric rail_fast ship" speed="13.89" length="9.40" shape="386.78,1291.58 396.18,1291.57"/>
    </edge>
    <edge id=":8595994011_8" function="internal">
        <lane id=":8595994011_8_0" index="0" disallow="tram rail_urban rail rail_electric rail_fast ship" speed="3.65" length="2.34" shape="386.78,1291.58 387.98,1292.38 388.38,1293.18"/>
    </edge>
    <edge id=":8595994011_11" function="internal">
        <lane id=":8595994011_11_0" index="0" disallow="tram rail_urban rail rail_electric rail_fast ship" speed="3.65" length="2.34" shape="388.38,1293.18 387.98,1293.98 386.78,1294.78"/>
    </edge>
    <edge id=":8595994012_0" function="internal">
        <lane id=":8595994012_0_0" index="0" allow="pedestrian delivery bicycle" speed="3.65" length="4.67" shape="390.49,1178.58 391.29,1177.38 392.10,1176.99 392.89,1177.39 393.69,1178.60"/>
    </edge>
    <edge id=":90600423_0" function="internal">
        <lane id=":90600423_0_0" index="0" disallow="tram rail_urban rail rail_electric rail_fast ship" speed="3.65" length="4.67" shape="-0.28,1292.23 -1.11,1291.05 -1.19,1290.16 -0.53,1289.56 0.88,1289.25"/>
    </edge>
    <edge id=":90637049_0" function="internal">
        <lane id=":90637049_0_0" index="0" disallow="tram rail_urban rail rail_electric rail_fast ship" speed="3.65" length="4.67" shape="453.49,6.83 454.29,5.63 455.09,5.23 455.89,5.62 456.69,6.82"/>
    </edge>
    <edge id=":90637092_0" function="internal">
        <lane id=":90637092_0_0" index="0" disallow="tram rail_urban rail rail_electric rail_fast ship" speed="6.61" length="9.22" shape="472.69,1294.63 470.19,1295.01 468.40,1296.09 467.31,1297.88 466.93,1300.36"/>
    </edge>
    <edge id=":90637092_1" function="internal">
        <lane id=":90637092_1_0" index="0" disallow="tram rail_urban rail rail_electric rail_fast ship" speed="13.89" length="14.52" shape="472.69,1294.63 458.17,1294.72"/>
    </edge>
    <edge id=":90637092_2" function="internal">
        <lane id=":90637092_2_0" index="0" disallow="tram rail_urban rail rail_electric rail_fast ship" speed="7.96" length="14.28" shape="472.69,1294.63 468.80,1294.12 466.03,1292.48 464.39,1289.71 463.88,1285.82"/>
    </edge>
    <edge id=":90637092_3" function="internal">
        <lane id=":90637092_3_0" index="0" disallow="tram rail_urban rail rail_electric rail_fast ship" speed="3.65" length="4.67" shape="472.69,1294.63 471.48,1293.84 471.07,1293.05 471.46,1292.24 472.65,1291.43"/>
    </edge>
    <edge id=":90637092_4" function="internal">
        <lane id=":90637092_4_0" index="0" disallow="tram rail_urban rail rail_electric rail_fast ship" speed="6.46" length="9.03" shape="467.08,1285.86 467.40,1288.32 468.44,1290.07 470.19,1291.11 472.65,1291.43"/>
    </edge>
    <edge id=":90637092_5" function="internal">
        <lane id=":90637092_5_0" index="0" disallow="tram rail_urban rail rail_electric rail_fast ship" speed="13.89" length="14.50" shape="467.08,1285.86 466.93,1300.36"/>
    </edge>
    <edge id=":90637092_6" function="internal">
        <lane id=":90637092_6_0" index="0" disallow="tram rail_urban rail rail_electric rail_fast ship" speed="8.06" length="5.96" shape="467.08,1285.86 466.49,1289.73 465.42,1291.48"/>
    </edge>
    <edge id=":90637092_7" function="internal">
        <lane id=":90637092_7_0" index="0" disallow="tram rail_urban rail rail_electric rail_fast ship" speed="3.65" length="2.34" shape="467.08,1285.86 466.27,1287.05 465.46,1287.44"/>
    </edge>
    <edge id=":90637092_16" function="internal">
        <lane id=":90637092_16_0" index="0" disallow="tram rail_urban rail rail_electric rail_fast ship" speed="8.06" length="8.33" shape="465.42,1291.48 464.80,1292.50 462.03,1294.16 458.17,1294.72"/>
    </edge>
    <edge id=":90637092_17" function="internal">
        <lane id=":90637092_17_0" index="0" disallow="tram rail_urban rail rail_electric rail_fast ship" speed="3.65" length="2.34" shape="465.46,1287.44 464.67,1287.03 463.88,1285.82"/>
    </edge>
    <edge id=":90637092_8" function="internal">
        <lane id=":90637092_8_0" index="0" disallow="tram rail_urban rail rail_electric rail_fast ship" speed="6.58" length="9.18" shape="458.16,1291.52 460.64,1291.16 462.42,1290.09 463.50,1288.31 463.88,1285.82"/>
    </edge>
    <edge id=":90637092_9" function="internal">
        <lane id=":90637092_9_0" index="0" disallow="tram rail_urban rail rail_electric rail_fast ship" speed="13.89" length="14.49" shape="458.16,1291.52 472.65,1291.43"/>
    </edge>
    <edge id=":90637092_10" function="internal">
        <lane id=":90637092_10_0" index="0" disallow="tram rail_urban rail rail_electric rail_fast ship" speed="7.98" length="14.23" shape="458.16,1291.52 462.03,1292.07 464.78,1293.73 466.41,1296.49 466.93,1300.36"/>
    </edge>
    <edge id=":90637092_11" function="internal">
        <lane id=":90637092_11_0" index="0" disallow="tram rail_urban rail rail_electric rail_fast ship" speed="3.65" length="4.67" shape="458.16,1291.52 459.37,1292.32 459.77,1293.12 459.37,1293.92 458.17,1294.72"/>
    </edge>
    <edge id=":90637092_12" function="internal">
        <lane id=":90637092_12_0" index="0" disallow="tram rail_urban rail rail_electric rail_fast ship" speed="6.49" length="9.03" shape="463.73,1300.33 463.40,1297.87 462.37,1296.12 460.62,1295.07 458.17,1294.72"/>
    </edge>
    <edge id=":90637092_13" function="internal">
        <lane id=":90637092_13_0" index="0" disallow="tram rail_urban rail rail_electric rail_fast ship" speed="13.89" length="14.51" shape="463.73,1300.33 463.88,1285.82"/>
    </edge>
    <edge id=":90637092_14" function="internal">
        <lane id=":90637092_14_0" index="0" disallow="tram rail_urban rail rail_electric rail_fast ship" speed="8.09" length="5.96" shape="463.73,1300.33 464.32,1296.47 465.39,1294.71"/>
    </edge>
    <edge id=":90637092_15" function="internal">
        <lane id=":90637092_15_0" index="0" disallow="tram rail_urban rail rail_electric rail_fast ship" speed="3.65" length="2.34" shape="463.73,1300.33 464.54,1299.14 465.35,1298.74"/>
    </edge>
    <edge id=":90637092_18" function="internal">
        <lane id=":90637092_18_0" index="0" disallow="tram rail_urban rail rail_electric rail_fast ship" speed="8.09" length="8.34" shape="465.39,1294.71 466.00,1293.71 468.78,1292.02 472.65,1291.43"/>
    </edge>
    <edge id=":90637092_19" function="internal">
        <lane id=":90637092_19_0" index="0" disallow="tram rail_urban rail rail_electric rail_fast ship" speed="3.65" length="2.34" shape="465.35,1298.74 466.14,1299.15 466.93,1300.36"/>
    </edge>
    <edge id=":90637093_0" function="internal">
        <lane id=":90637093_0_0" index="0" allow="pedestrian delivery bicycle" speed="5.16" length="5.20" shape="469.67,1353.72 468.27,1353.93 467.26,1354.55 466.65,1355.56 466.44,1356.96"/>
    </edge>
    <edge id=":90637093_1" function="internal">
        <lane id=":90637093_1_0" index="0" allow="pedestrian delivery bicycle" speed="5.56" length="9.54" shape="469.67,1353.72 460.13,1353.84"/>
    </edge>
    <edge id=":90637093_2" function="internal">
        <lane id=":90637093_2_0" index="0" allow="pedestrian delivery bicycle" speed="6.84" length="10.26" shape="469.67,1353.72 466.87,1353.35 464.88,1352.18 463.70,1350.19 463.33,1347.39"/>
    </edge>
    <edge id=":90637093_3" function="internal">
        <lane id=":90637093_3_0" index="0" allow="pedestrian delivery bicycle" speed="3.65" length="4.67" shape="469.67,1353.72 468.46,1352.93 468.05,1352.14 468.44,1351.33 469.63,1350.52"/>
    </edge>
    <edge id=":90637093_4" function="internal">
        <lane id=":90637093_4_0" index="0" allow="pedestrian delivery bicycle" speed="5.02" length="5.02" shape="466.53,1347.42 466.71,1348.79 467.29,1349.76 468.26,1350.34 469.63,1350.52"/>
    </edge>
    <edge id=":90637093_5" function="internal">
        <lane id=":90637093_5_0" index="0" disallow="tram rail_urban rail rail_electric rail_fast ship" speed="13.89" length="9.54" shape="466.53,1347.42 466.44,1356.96"/>
    </edge>
    <edge id=":90637093_6" function="internal">
        <lane id=":90637093_6_0" index="0" allow="pedestrian delivery bicycle" speed="6.95" length="2.07" shape="466.53,1347.42 466.22,1349.46"/>
    </edge>
    <edge id=":90637093_7" function="internal">
        <lane id=":90637093_7_0" index="0" disallow="tram rail_urban rail rail_electric rail_fast ship" speed="3.65" length="2.34" shape="466.53,1347.42 465.72,1348.62 464.91,1349.01"/>
    </edge>
    <edge id=":90637093_16" function="internal">
        <lane id=":90637093_16_0" index="0" allow="pedestrian delivery bicycle" speed="6.95" length="8.21" shape="466.22,1349.46 466.11,1350.20 464.90,1352.19 462.91,1353.41 460.13,1353.84"/>
    </edge>
    <edge id=":90637093_17" function="internal">
        <lane id=":90637093_17_0" index="0" disallow="tram rail_urban rail rail_electric rail_fast ship" speed="3.65" length="2.34" shape="464.91,1349.01 464.12,1348.60 463.33,1347.39"/>
    </edge>
    <edge id=":90637093_8" function="internal">
        <lane id=":90637093_8_0" index="0" allow="pedestrian delivery bicycle" speed="5.16" length="5.20" shape="460.09,1350.64 461.50,1350.42 462.50,1349.81 463.11,1348.80 463.33,1347.39"/>
    </edge>
    <edge id=":90637093_9" function="internal">
        <lane id=":90637093_9_0" index="0" allow="pedestrian delivery bicycle" speed="5.56" length="9.54" shape="460.09,1350.64 469.63,1350.52"/>
    </edge>
    <edge id=":90637093_10" function="internal">
        <lane id=":90637093_10_0" index="0" allow="pedestrian delivery bicycle" speed="6.84" length="10.27" shape="460.09,1350.64 462.89,1351.00 464.88,1352.18 466.07,1354.16 466.44,1356.96"/>
    </edge>
    <edge id=":90637093_11" function="internal">
        <lane id=":90637093_11_0" index="0" allow="pedestrian delivery bicycle" speed="3.65" length="4.67" shape="460.09,1350.64 461.30,1351.42 461.71,1352.22 461.32,1353.02 460.13,1353.84"/>
    </edge>
    <edge id=":90637093_12" function="internal">
        <lane id=":90637093_12_0" index="0" allow="pedestrian delivery bicycle" speed="5.02" length="5.03" shape="463.24,1356.93 463.06,1355.56 462.48,1354.59 461.50,1354.01 460.13,1353.84"/>
    </edge>
    <edge id=":90637093_13" function="internal">
        <lane id=":90637093_13_0" index="0" disallow="tram rail_urban rail rail_electric rail_fast ship" speed="13.89" length="9.54" shape="463.24,1356.93 463.33,1347.39"/>
    </edge>
    <edge id=":90637093_14" function="internal">
        <lane id=":90637093_14_0" index="0" allow="pedestrian delivery bicycle" speed="6.95" length="2.07" shape="463.24,1356.93 463.55,1354.89"/>
    </edge>
    <edge id=":90637093_15" function="internal">
        <lane id=":90637093_15_0" index="0" disallow="tram rail_urban rail rail_electric rail_fast ship" speed="3.65" length="2.34" shape="463.24,1356.93 464.05,1355.74 464.86,1355.35"/>
    </edge>
    <edge id=":90637093_18" function="internal">
        <lane id=":90637093_18_0" index="0" allow="pedestrian delivery bicycle" speed="6.95" length="8.21" shape="463.55,1354.89 463.66,1354.15 464.87,1352.16 466.86,1350.95 469.63,1350.52"/>
    </edge>
    <edge id=":90637093_19" function="internal">
        <lane id=":90637093_19_0" index="0" disallow="tram rail_urban rail rail_electric rail_fast ship" speed="3.65" length="2.34" shape="464.86,1355.35 465.65,1355.75 466.44,1356.96"/>
    </edge>
    <edge id=":90637099_0" function="internal">
        <lane id=":90637099_0_0" index="0" disallow="tram rail_urban rail rail_electric rail_fast ship" speed="6.65" length="9.50" shape="463.59,1420.53 463.20,1418.08 462.04,1416.33 460.11,1415.29 457.41,1414.95"/>
    </edge>
    <edge id=":90637099_1" function="internal">
        <lane id=":90637099_1_0" index="0" disallow="tram rail_urban rail rail_electric rail_fast ship" speed="13.89" length="20.93" shape="463.59,1420.53 462.85,1399.61"/>
    </edge>
    <edge id=":90637099_2" function="internal">
        <lane id=":90637099_2_0" index="0" disallow="tram rail_urban rail rail_electric rail_fast ship" speed="8.68" length="16.86" shape="463.59,1420.53 464.14,1415.28 465.78,1411.52 468.53,1409.27 472.38,1408.51"/>
    </edge>
    <edge id=":90637099_3" function="internal">
        <lane id=":90637099_3_0" index="0" disallow="tram rail_urban rail rail_electric rail_fast ship" speed="3.65" length="4.67" shape="463.59,1420.53 464.39,1419.33 465.19,1418.93 465.99,1419.33 466.79,1420.53"/>
    </edge>
    <edge id=":90637099_4" function="internal">
        <lane id=":90637099_4_0" index="0" disallow="tram rail_urban rail rail_electric rail_fast ship" speed="6.51" length="9.04" shape="472.38,1414.91 469.93,1415.26 468.19,1416.32 467.14,1418.07 466.79,1420.53"/>
    </edge>
    <edge id=":90637099_5" function="internal">
        <lane id=":90637099_5_0" index="0" disallow="tram rail_urban rail rail_electric rail_fast ship" speed="27.78" length="14.98" shape="472.38,1414.91 457.41,1414.95"/>
        <lane id=":90637099_5_1" index="1" disallow="tram rail_urban rail rail_electric rail_fast ship" speed="27.78" length="14.98" shape="472.38,1411.71 457.40,1411.75"/>
    </edge>
    <edge id=":90637099_7" function="internal">
        <lane id=":90637099_7_0" index="0" disallow="tram rail_urban rail rail_electric rail_fast ship" speed="8.80" length="5.66" shape="472.38,1411.71 468.17,1410.96 467.07,1410.12"/>
    </edge>
    <edge id=":90637099_8" function="internal">
        <lane id=":90637099_8_0" index="0" disallow="tram rail_urban rail rail_electric rail_fast ship" speed="3.65" length="2.34" shape="472.38,1411.71 471.18,1410.91 470.78,1410.11"/>
    </edge>
    <edge id=":90637099_18" function="internal">
        <lane id=":90637099_18_0" index="0" disallow="tram rail_urban rail rail_electric rail_fast ship" speed="8.80" length="11.87" shape="467.07,1410.12 465.18,1408.69 463.40,1404.91 462.85,1399.61"/>
    </edge>
    <edge id=":90637099_19" function="internal">
        <lane id=":90637099_19_0" index="0" disallow="tram rail_urban rail rail_electric rail_fast ship" speed="3.65" length="2.34" shape="470.78,1410.11 471.18,1409.31 472.38,1408.51"/>
    </edge>
    <edge id=":90637099_9" function="internal">
        <lane id=":90637099_9_0" index="0" disallow="tram rail_urban rail rail_electric rail_fast ship" speed="6.77" length="9.93" shape="466.05,1399.35 466.42,1401.96 467.60,1403.83 469.59,1404.94 472.37,1405.31"/>
    </edge>
    <edge id=":90637099_10" function="internal">
        <lane id=":90637099_10_0" index="0" disallow="tram rail_urban rail rail_electric rail_fast ship" speed="13.89" length="21.19" shape="466.05,1399.35 466.79,1420.53"/>
    </edge>
    <edge id=":90637099_11" function="internal">
        <lane id=":90637099_11_0" index="0" disallow="tram rail_urban rail rail_electric rail_fast ship" speed="8.75" length="17.03" shape="466.05,1399.35 465.47,1404.76 463.83,1408.63 461.14,1410.96 457.40,1411.75"/>
    </edge>
    <edge id=":90637099_12" function="internal">
        <lane id=":90637099_12_0" index="0" disallow="tram rail_urban rail rail_electric rail_fast ship" speed="3.66" length="4.69" shape="466.05,1399.35 465.35,1400.62 464.58,1401.08 463.75,1400.75 462.85,1399.61"/>
    </edge>
    <edge id=":90637099_13" function="internal">
        <lane id=":90637099_13_0" index="0" disallow="tram rail_urban rail rail_electric rail_fast ship" speed="6.53" length="9.01" shape="457.37,1405.35 459.75,1404.98 461.45,1403.90 462.49,1402.11 462.85,1399.61"/>
    </edge>
    <edge id=":90637099_14" function="internal">
        <lane id=":90637099_14_0" index="0" disallow="tram rail_urban rail rail_electric rail_fast ship" speed="27.78" length="14.99" shape="457.37,1405.35 472.37,1405.31"/>
        <lane id=":90637099_14_1" index="1" disallow="tram rail_urban rail rail_electric rail_fast ship" speed="27.78" length="14.99" shape="457.39,1408.55 472.38,1408.51"/>
    </edge>
    <edge id=":90637099_16" function="internal">
        <lane id=":90637099_16_0" index="0" disallow="tram rail_urban rail rail_electric rail_fast ship" speed="8.77" length="5.58" shape="457.39,1408.55 461.50,1409.28 462.61,1410.14"/>
    </edge>
    <edge id=":90637099_17" function="internal">
        <lane id=":90637099_17_0" index="0" disallow="tram rail_urban rail rail_electric rail_fast ship" speed="3.65" length="2.34" shape="457.39,1408.55 458.59,1409.34 458.99,1410.14"/>
    </edge>
    <edge id=":90637099_20" function="internal">
        <lane id=":90637099_20_0" index="0" disallow="tram rail_urban rail rail_electric rail_fast ship" speed="8.77" length="11.72" shape="462.61,1410.14 464.44,1411.53 466.20,1415.28 466.79,1420.53"/>
    </edge>
    <edge id=":90637099_21" function="internal">
        <lane id=":90637099_21_0" index="0" disallow="tram rail_urban rail rail_electric rail_fast ship" speed="3.65" length="2.34" shape="458.99,1410.14 458.59,1410.94 457.40,1411.75"/>
    </edge>