<?xml version="1.0" encoding="UTF-8"?>

<!-- generated on 2022-04-20 20:59:40 by Eclipse SUMO netconvert Version 1.10.0
<configuration xmlns:xsi="http://www.w3.org/2001/XMLSchema-instance" xsi:noNamespaceSchemaLocation="http://sumo.dlr.de/xsd/netconvertConfiguration.xsd">

    <input>
        <osm-files value="map.osm"/>
    </input>

    <output>
        <output-file value="/home/sheldon/Documents/FIIT/TP/maps_new/texas/map.net.xml"/>
    </output>

    <projection>
        <proj.utm value="true"/>
    </projection>

    <report>
        <aggregate-warnings value="5"/>
    </report>

</configuration>
-->

<net version="1.9" junctionCornerDetail="5" limitTurnSpeed="5.50" xmlns:xsi="http://www.w3.org/2001/XMLSchema-instance" xsi:noNamespaceSchemaLocation="http://sumo.dlr.de/xsd/net_file.xsd">

    <location netOffset="-701639.56,-3624978.68" convBoundary="0.00,0.00,2164.94,1702.52" origBoundary="-96.847797,32.744127,-96.824690,32.759445" projParameter="+proj=utm +zone=14 +ellps=WGS84 +datum=WGS84 +units=m +no_defs"/>

    <type id="highway.bridleway" priority="1" numLanes="1" speed="2.78" allow="pedestrian" oneway="1" width="2.00"/>
    <type id="highway.bus_guideway" priority="1" numLanes="1" speed="27.78" allow="bus" oneway="1"/>
    <type id="highway.cycleway" priority="1" numLanes="1" speed="8.33" allow="bicycle" oneway="0" width="1.00"/>
    <type id="highway.footway" priority="1" numLanes="1" speed="2.78" allow="pedestrian" oneway="1" width="2.00"/>
    <type id="highway.ford" priority="1" numLanes="1" speed="2.78" allow="army" oneway="0"/>
    <type id="highway.living_street" priority="2" numLanes="1" speed="2.78" disallow="tram rail_urban rail rail_electric rail_fast ship" oneway="0"/>
    <type id="highway.motorway" priority="14" numLanes="2" speed="39.44" allow="private emergency authority army vip passenger hov taxi bus coach delivery truck trailer motorcycle evehicle custom1 custom2" oneway="1"/>
    <type id="highway.motorway_link" priority="9" numLanes="1" speed="22.22" allow="private emergency authority army vip passenger hov taxi bus coach delivery truck trailer motorcycle evehicle custom1 custom2" oneway="1"/>
    <type id="highway.path" priority="1" numLanes="1" speed="2.78" allow="pedestrian bicycle" oneway="0" width="2.00"/>
    <type id="highway.pedestrian" priority="1" numLanes="1" speed="2.78" allow="pedestrian" oneway="1" width="2.00"/>
    <type id="highway.primary" priority="12" numLanes="2" speed="27.78" disallow="tram rail_urban rail rail_electric rail_fast ship" oneway="0"/>
    <type id="highway.primary_link" priority="7" numLanes="1" speed="22.22" disallow="tram rail_urban rail rail_electric rail_fast ship" oneway="0"/>
    <type id="highway.raceway" priority="15" numLanes="2" speed="83.33" allow="vip" oneway="0"/>
    <type id="highway.residential" priority="3" numLanes="1" speed="13.89" disallow="tram rail_urban rail rail_electric rail_fast ship" oneway="0"/>
    <type id="highway.secondary" priority="11" numLanes="1" speed="27.78" disallow="tram rail_urban rail rail_electric rail_fast ship" oneway="0"/>
    <type id="highway.secondary_link" priority="6" numLanes="1" speed="22.22" disallow="tram rail_urban rail rail_electric rail_fast ship" oneway="0"/>
    <type id="highway.service" priority="1" numLanes="1" speed="5.56" allow="pedestrian delivery bicycle" oneway="0"/>
    <type id="highway.stairs" priority="1" numLanes="1" speed="1.39" allow="pedestrian" oneway="1" width="2.00"/>
    <type id="highway.step" priority="1" numLanes="1" speed="1.39" allow="pedestrian" oneway="1" width="2.00"/>
    <type id="highway.steps" priority="1" numLanes="1" speed="1.39" allow="pedestrian" oneway="1" width="2.00"/>
    <type id="highway.tertiary" priority="10" numLanes="1" speed="22.22" disallow="tram rail_urban rail rail_electric rail_fast ship" oneway="0"/>
    <type id="highway.tertiary_link" priority="5" numLanes="1" speed="22.22" disallow="tram rail_urban rail rail_electric rail_fast ship" oneway="0"/>
    <type id="highway.track" priority="1" numLanes="1" speed="5.56" allow="pedestrian motorcycle moped bicycle" oneway="0"/>
    <type id="highway.trunk" priority="13" numLanes="2" speed="27.78" disallow="pedestrian bicycle tram rail_urban rail rail_electric rail_fast ship" oneway="0"/>
    <type id="highway.trunk_link" priority="8" numLanes="1" speed="22.22" disallow="pedestrian bicycle tram rail_urban rail rail_electric rail_fast ship" oneway="0"/>
    <type id="highway.unclassified" priority="4" numLanes="1" speed="13.89" disallow="tram rail_urban rail rail_electric rail_fast ship" oneway="0"/>
    <type id="highway.unsurfaced" priority="1" numLanes="1" speed="8.33" disallow="tram rail_urban rail rail_electric rail_fast ship" oneway="0"/>
    <type id="railway.highspeed" priority="21" numLanes="1" speed="69.44" allow="rail_fast" oneway="1"/>
    <type id="railway.light_rail" priority="19" numLanes="1" speed="27.78" allow="rail_urban" oneway="1"/>
    <type id="railway.preserved" priority="16" numLanes="1" speed="27.78" allow="rail" oneway="1"/>
    <type id="railway.rail" priority="20" numLanes="1" speed="44.44" allow="rail" oneway="1"/>
    <type id="railway.subway" priority="18" numLanes="1" speed="27.78" allow="rail_urban" oneway="1"/>
    <type id="railway.tram" priority="17" numLanes="1" speed="13.89" allow="tram" oneway="1"/>

    <edge id=":4217942199_0" function="internal">
        <lane id=":4217942199_0_0" index="0" allow="pedestrian delivery bicycle" speed="3.65" length="4.67" shape="1822.62,513.05 1823.81,513.86 1824.19,514.67 1823.78,515.46 1822.57,516.25"/>
    </edge>
    <edge id=":4300473835_0" function="internal">
        <lane id=":4300473835_0_0" index="0" allow="pedestrian delivery bicycle" speed="6.84" length="10.27" shape="789.61,498.66 786.81,498.28 784.83,497.09 783.66,495.09 783.31,492.29"/>
        <lane id=":4300473835_0_1" index="1" allow="pedestrian delivery bicycle" speed="6.06" length="7.82" shape="789.61,498.66 788.21,498.27 787.23,497.09 786.66,495.11 786.51,492.34"/>
    </edge>
    <edge id=":4300473835_2" function="internal">
        <lane id=":4300473835_2_0" index="0" allow="pedestrian delivery bicycle" speed="3.65" length="4.67" shape="789.61,498.66 788.40,497.87 788.00,497.07 788.39,496.27 789.59,495.46"/>
    </edge>
    <edge id=":4300473835_3" function="internal">
        <lane id=":4300473835_3_0" index="0" disallow="tram rail_urban rail rail_electric rail_fast ship" speed="27.78" length="9.41" shape="779.95,501.64 780.11,492.23"/>
        <lane id=":4300473835_3_1" index="1" disallow="tram rail_urban rail rail_electric rail_fast ship" speed="27.78" length="9.41" shape="783.15,501.69 783.31,492.29"/>
        <lane id=":4300473835_3_2" index="2" disallow="tram rail_urban rail rail_electric rail_fast ship" speed="27.78" length="9.41" shape="786.35,501.74 786.51,492.34"/>
    </edge>
    <edge id=":4300473835_6" function="internal">
        <lane id=":4300473835_6_0" index="0" allow="pedestrian delivery bicycle" speed="6.14" length="7.79" shape="786.35,501.74 786.59,499.00 787.21,497.04 788.21,495.86 789.59,495.46"/>
    </edge>
    <edge id=":7071746294_0" function="internal">
        <lane id=":7071746294_0_0" index="0" allow="pedestrian delivery bicycle" speed="3.65" length="4.67" shape="637.86,117.47 638.67,116.28 639.47,115.89 640.27,116.29 641.06,117.50"/>
    </edge>
    <edge id=":7242803372_0" function="internal">
        <lane id=":7242803372_0_0" index="0" allow="pedestrian delivery bicycle" speed="5.26" length="5.27" shape="762.63,547.78 761.30,547.97 760.31,548.59 759.66,549.65 759.35,551.13"/>
    </edge>
    <edge id=":7242803372_1" function="internal">
        <lane id=":7242803372_1_0" index="0" disallow="tram rail_urban rail rail_electric rail_fast ship" speed="22.22" length="9.41" shape="762.63,547.78 753.22,547.62"/>
    </edge>
    <edge id=":7242803372_2" function="internal">
        <lane id=":7242803372_2_0" index="0" disallow="tram rail_urban rail rail_electric rail_fast ship" speed="3.65" length="2.34" shape="762.63,547.78 761.44,546.96 761.06,546.16"/>
    </edge>
    <edge id=":7242803372_9" function="internal">
        <lane id=":7242803372_9_0" index="0" disallow="tram rail_urban rail rail_electric rail_fast ship" speed="3.65" length="2.34" shape="761.06,546.16 761.47,545.36 762.68,544.58"/>
    </edge>
    <edge id=":7242803372_3" function="internal">
        <lane id=":7242803372_3_0" index="0" disallow="tram rail_urban rail rail_electric rail_fast ship" speed="22.22" length="9.41" shape="753.27,544.42 762.68,544.58"/>
    </edge>
    <edge id=":7242803372_4" function="internal">
        <lane id=":7242803372_4_0" index="0" allow="pedestrian delivery bicycle" speed="6.81" length="5.24" shape="753.27,544.42 756.13,544.88 758.10,546.16"/>
    </edge>
    <edge id=":7242803372_5" function="internal">
        <lane id=":7242803372_5_0" index="0" disallow="tram rail_urban rail rail_electric rail_fast ship" speed="3.65" length="2.34" shape="753.27,544.42 754.46,545.24 754.85,546.05"/>
    </edge>
    <edge id=":7242803372_10" function="internal">
        <lane id=":7242803372_10_0" index="0" allow="pedestrian delivery bicycle" speed="6.81" length="5.24" shape="758.10,546.16 759.18,548.24 759.35,551.13"/>
    </edge>
    <edge id=":7242803372_11" function="internal">
        <lane id=":7242803372_11_0" index="0" disallow="tram rail_urban rail rail_electric rail_fast ship" speed="3.65" length="2.34" shape="754.85,546.05 754.43,546.84 753.22,547.62"/>
    </edge>
    <edge id=":7242803372_6" function="internal">
        <lane id=":7242803372_6_0" index="0" allow="pedestrian delivery bicycle" speed="4.97" length="5.08" shape="756.16,550.87 756.08,549.47 755.56,548.46 754.60,547.85 753.22,547.62"/>
    </edge>
    <edge id=":7242803372_7" function="internal">
        <lane id=":7242803372_7_0" index="0" allow="pedestrian delivery bicycle" speed="7.03" length="10.19" shape="756.16,550.87 756.77,548.08 758.05,546.10 760.03,544.94 762.68,544.58"/>
    </edge>
    <edge id=":7242803372_8" function="internal">
        <lane id=":7242803372_8_0" index="0" allow="pedestrian delivery bicycle" speed="3.65" length="4.67" shape="756.16,550.87 757.06,549.74 757.89,549.41 758.65,549.87 759.35,551.13"/>
    </edge>
    <edge id=":7242803374_0" function="internal">
        <lane id=":7242803374_0_0" index="0" disallow="tram rail_urban rail rail_electric rail_fast ship" speed="13.89" length="9.40" shape="693.92,569.10 693.87,559.70"/>
    </edge>
    <edge id=":7242803374_1" function="internal">
        <lane id=":7242803374_1_0" index="0" allow="pedestrian delivery bicycle" speed="6.84" length="5.14" shape="693.92,569.10 694.30,566.30 695.50,564.32"/>
    </edge>
    <edge id=":7242803374_2" function="internal">
        <lane id=":7242803374_2_0" index="0" disallow="tram rail_urban rail rail_electric rail_fast ship" speed="3.65" length="2.34" shape="693.92,569.10 694.71,567.90 695.51,567.50"/>
    </edge>
    <edge id=":7242803374_9" function="internal">
        <lane id=":7242803374_9_0" index="0" allow="pedestrian delivery bicycle" speed="6.84" length="5.14" shape="695.50,564.32 697.49,563.16 700.30,562.81"/>
    </edge>
    <edge id=":7242803374_10" function="internal">
        <lane id=":7242803374_10_0" index="0" disallow="tram rail_urban rail rail_electric rail_fast ship" speed="3.65" length="2.34" shape="695.51,567.50 696.31,567.89 697.12,569.09"/>
    </edge>
    <edge id=":7242803374_3" function="internal">
        <lane id=":7242803374_3_0" index="0" allow="pedestrian delivery bicycle" speed="5.02" length="5.03" shape="700.24,566.01 698.87,566.18 697.89,566.75 697.31,567.72 697.12,569.09"/>
    </edge>
    <edge id=":7242803374_4" function="internal">
        <lane id=":7242803374_4_0" index="0" allow="pedestrian delivery bicycle" speed="6.92" length="10.17" shape="700.24,566.01 697.46,565.57 695.48,564.37 694.28,562.42 693.87,559.70"/>
    </edge>
    <edge id=":7242803374_5" function="internal">
        <lane id=":7242803374_5_0" index="0" allow="pedestrian delivery bicycle" speed="3.65" length="4.67" shape="700.24,566.01 699.05,565.18 698.67,564.38 699.08,563.58 700.30,562.81"/>
    </edge>
    <edge id=":7242803374_6" function="internal">
        <lane id=":7242803374_6_0" index="0" allow="pedestrian delivery bicycle" speed="5.12" length="5.09" shape="697.07,559.69 697.28,561.03 697.88,562.00 698.89,562.59 700.30,562.81"/>
    </edge>
    <edge id=":7242803374_7" function="internal">
        <lane id=":7242803374_7_0" index="0" disallow="tram rail_urban rail rail_electric rail_fast ship" speed="13.89" length="9.40" shape="697.07,559.69 697.12,569.09"/>
    </edge>
    <edge id=":7242803374_8" function="internal">
        <lane id=":7242803374_8_0" index="0" disallow="tram rail_urban rail rail_electric rail_fast ship" speed="3.65" length="2.34" shape="697.07,559.69 696.27,560.89 695.48,561.29"/>
    </edge>
    <edge id=":7242803374_11" function="internal">
        <lane id=":7242803374_11_0" index="0" disallow="tram rail_urban rail rail_electric rail_fast ship" speed="3.65" length="2.34" shape="695.48,561.29 694.67,560.90 693.87,559.70"/>
    </edge>
    <edge id=":7301472390_0" function="internal">
        <lane id=":7301472390_0_0" index="0" allow="pedestrian delivery bicycle" speed="6.85" length="10.15" shape="792.50,358.12 789.75,357.66 787.80,356.43 786.67,354.44 786.36,351.68"/>
        <lane id=":7301472390_0_1" index="1" allow="pedestrian delivery bicycle" speed="6.08" length="7.76" shape="792.50,358.12 791.15,357.69 790.20,356.49 789.67,354.51 789.55,351.75"/>
    </edge>
    <edge id=":7301472390_2" function="internal">
        <lane id=":7301472390_2_0" index="0" allow="pedestrian delivery bicycle" speed="3.65" length="4.67" shape="792.50,358.12 791.32,357.29 790.94,356.48 791.36,355.69 792.58,354.92"/>
    </edge>
    <edge id=":7301472390_3" function="internal">
        <lane id=":7301472390_3_0" index="0" disallow="tram rail_urban rail rail_electric rail_fast ship" speed="27.78" length="9.39" shape="782.93,360.99 783.16,351.62"/>
        <lane id=":7301472390_3_1" index="1" disallow="tram rail_urban rail rail_electric rail_fast ship" speed="27.78" length="9.39" shape="786.13,361.07 786.36,351.68"/>
        <lane id=":7301472390_3_2" index="2" disallow="tram rail_urban rail rail_electric rail_fast ship" speed="27.78" length="9.39" shape="789.33,361.14 789.55,351.75"/>
    </edge>
    <edge id=":7301472390_6" function="internal">
        <lane id=":7301472390_6_0" index="0" allow="pedestrian delivery bicycle" speed="6.08" length="7.76" shape="789.33,361.14 789.58,358.39 790.21,356.44 791.21,355.28 792.58,354.92"/>
    </edge>
    <edge id=":7301472392_0" function="internal">
        <lane id=":7301472392_0_0" index="0" allow="pedestrian delivery bicycle" speed="5.56" length="7.73" shape="820.46,315.60 822.55,315.97 824.02,316.92 824.87,318.44 825.10,320.55"/>
    </edge>
    <edge id=":7301472392_1" function="internal">
        <lane id=":7301472392_1_0" index="0" allow="pedestrian delivery bicycle" speed="3.90" length="2.58" shape="821.91,320.45 821.83,319.75 821.54,319.24 821.05,318.92 820.36,318.80"/>
    </edge>
    <edge id=":7301472394_0" function="internal">
        <lane id=":7301472394_0_0" index="0" allow="pedestrian delivery bicycle" speed="5.56" length="9.40" shape="809.51,358.55 800.12,358.31"/>
    </edge>
    <edge id=":7301472394_1" function="internal">
        <lane id=":7301472394_1_0" index="0" allow="pedestrian delivery bicycle" speed="5.56" length="10.18" shape="809.51,358.55 806.76,358.08 804.82,356.85 803.70,354.85 803.38,352.07"/>
    </edge>
    <edge id=":7301472394_2" function="internal">
        <lane id=":7301472394_2_0" index="0" allow="pedestrian delivery bicycle" speed="3.65" length="4.67" shape="809.51,358.55 808.33,357.72 807.95,356.91 808.37,356.12 809.59,355.35"/>
    </edge>
    <edge id=":7301472394_3" function="internal">
        <lane id=":7301472394_3_0" index="0" allow="pedestrian delivery bicycle" speed="5.04" length="5.00" shape="806.58,352.17 806.73,353.53 807.29,354.51 808.24,355.12 809.59,355.35"/>
    </edge>
    <edge id=":7301472394_4" function="internal">
        <lane id=":7301472394_4_0" index="0" allow="pedestrian delivery bicycle" speed="5.56" length="10.16" shape="806.58,352.17 806.11,354.91 804.87,356.85 802.88,357.99 800.12,358.31"/>
    </edge>
    <edge id=":7301472394_5" function="internal">
        <lane id=":7301472394_5_0" index="0" allow="pedestrian delivery bicycle" speed="3.65" length="4.67" shape="806.58,352.17 805.74,353.34 804.93,353.72 804.15,353.30 803.38,352.07"/>
    </edge>
    <edge id=":7301472394_6" function="internal">
        <lane id=":7301472394_6_0" index="0" allow="pedestrian delivery bicycle" speed="5.05" length="5.01" shape="800.20,355.11 801.56,354.95 802.54,354.39 803.15,353.43 803.38,352.07"/>
    </edge>
    <edge id=":7301472394_7" function="internal">
        <lane id=":7301472394_7_0" index="0" allow="pedestrian delivery bicycle" speed="5.56" length="9.40" shape="800.20,355.11 809.59,355.35"/>
    </edge>
    <edge id=":7301472394_8" function="internal">
        <lane id=":7301472394_8_0" index="0" allow="pedestrian delivery bicycle" speed="3.65" length="4.67" shape="800.20,355.11 801.38,355.94 801.76,356.75 801.34,357.54 800.12,358.31"/>
    </edge>
    <edge id=":7404048633_0" function="internal">
        <lane id=":7404048633_0_0" index="0" allow="pedestrian delivery bicycle" speed="3.65" length="4.67" shape="521.97,115.62 522.78,114.43 523.59,114.04 524.38,114.46 525.17,115.67"/>
    </edge>
    <edge id=":7404048636_0" function="internal">
        <lane id=":7404048636_0_0" index="0" allow="pedestrian delivery bicycle" speed="5.64" length="5.85" shape="528.00,261.29 526.55,261.53 525.44,262.24 524.69,263.41 524.28,265.04"/>
    </edge>
    <edge id=":7404048636_1" function="internal">
        <lane id=":7404048636_1_0" index="0" disallow="tram rail_urban rail rail_electric rail_fast ship" speed="13.89" length="9.80" shape="528.00,261.29 518.19,261.36"/>
    </edge>
    <edge id=":7404048636_2" function="internal">
        <lane id=":7404048636_2_0" index="0" allow="pedestrian delivery bicycle" speed="6.90" length="2.53" shape="528.00,261.29 525.49,260.94"/>
    </edge>
    <edge id=":7404048636_3" function="internal">
        <lane id=":7404048636_3_0" index="0" disallow="tram rail_urban rail rail_electric rail_fast ship" speed="3.65" length="2.34" shape="528.00,261.29 526.79,260.50 526.39,259.70"/>
    </edge>
    <edge id=":7404048636_16" function="internal">
        <lane id=":7404048636_16_0" index="0" allow="pedestrian delivery bicycle" speed="6.90" length="7.63" shape="525.49,260.94 525.27,260.91 523.29,259.74 522.08,257.77 521.63,255.01"/>
    </edge>
    <edge id=":7404048636_17" function="internal">
        <lane id=":7404048636_17_0" index="0" disallow="tram rail_urban rail rail_electric rail_fast ship" speed="3.65" length="2.34" shape="526.39,259.70 526.78,258.90 527.98,258.09"/>
    </edge>
    <edge id=":7404048636_4" function="internal">
        <lane id=":7404048636_4_0" index="0" allow="pedestrian delivery bicycle" speed="5.09" length="5.07" shape="524.83,254.93 525.05,256.32 525.65,257.31 526.63,257.90 527.98,258.09"/>
    </edge>
    <edge id=":7404048636_5" function="internal">
        <lane id=":7404048636_5_0" index="0" allow="pedestrian delivery bicycle" speed="5.56" length="10.14" shape="524.83,254.93 524.88,257.92 524.83,260.00 524.65,262.07 524.28,265.04"/>
    </edge>
    <edge id=":7404048636_6" function="internal">
        <lane id=":7404048636_6_0" index="0" allow="pedestrian delivery bicycle" speed="6.95" length="10.57" shape="524.83,254.93 524.47,257.73 523.24,259.73 521.15,260.94 518.19,261.36"/>
    </edge>
    <edge id=":7404048636_7" function="internal">
        <lane id=":7404048636_7_0" index="0" allow="pedestrian delivery bicycle" speed="3.65" length="4.67" shape="524.83,254.93 524.06,256.15 523.27,256.57 522.46,256.19 521.63,255.01"/>
    </edge>
    <edge id=":7404048636_8" function="internal">
        <lane id=":7404048636_8_0" index="0" allow="pedestrian delivery bicycle" speed="5.16" length="5.35" shape="518.17,258.16 519.71,257.95 520.80,257.36 521.44,256.38 521.63,255.01"/>
    </edge>
    <edge id=":7404048636_9" function="internal">
        <lane id=":7404048636_9_0" index="0" disallow="tram rail_urban rail rail_electric rail_fast ship" speed="13.89" length="9.80" shape="518.17,258.16 527.98,258.09"/>
    </edge>
    <edge id=":7404048636_10" function="internal">
        <lane id=":7404048636_10_0" index="0" allow="pedestrian delivery bicycle" speed="6.76" length="2.50" shape="518.17,258.16 520.65,258.50"/>
    </edge>
    <edge id=":7404048636_11" function="internal">
        <lane id=":7404048636_11_0" index="0" disallow="tram rail_urban rail rail_electric rail_fast ship" speed="3.65" length="2.34" shape="518.17,258.16 519.38,258.95 519.78,259.75"/>
    </edge>
    <edge id=":7404048636_18" function="internal">
        <lane id=":7404048636_18_0" index="0" allow="pedestrian delivery bicycle" speed="6.76" length="8.34" shape="520.65,258.50 521.17,258.57 523.19,259.85 524.23,262.01 524.28,265.04"/>
    </edge>
    <edge id=":7404048636_19" function="internal">
        <lane id=":7404048636_19_0" index="0" disallow="tram rail_urban rail rail_electric rail_fast ship" speed="3.65" length="2.34" shape="519.78,259.75 519.39,260.55 518.19,261.36"/>
    </edge>
    <edge id=":7404048636_12" function="internal">
        <lane id=":7404048636_12_0" index="0" allow="pedestrian delivery bicycle" speed="4.91" length="5.17" shape="521.10,264.64 521.08,263.19 520.59,262.16 519.62,261.55 518.19,261.36"/>
    </edge>
    <edge id=":7404048636_13" function="internal">
        <lane id=":7404048636_13_0" index="0" allow="pedestrian delivery bicycle" speed="5.56" length="9.66" shape="521.10,264.64 521.46,261.79 521.64,259.83 521.68,257.87 521.63,255.01"/>
    </edge>
    <edge id=":7404048636_14" function="internal">
        <lane id=":7404048636_14_0" index="0" allow="pedestrian delivery bicycle" speed="7.32" length="10.53" shape="521.10,264.64 521.84,261.79 523.23,259.75 525.28,258.51 527.98,258.09"/>
    </edge>
    <edge id=":7404048636_15" function="internal">
        <lane id=":7404048636_15_0" index="0" allow="pedestrian delivery bicycle" speed="3.65" length="4.67" shape="521.10,264.64 522.05,263.55 522.89,263.25 523.64,263.75 524.28,265.04"/>
    </edge>
    <edge id=":7428923179_0" function="internal">
        <lane id=":7428923179_0_0" index="0" allow="pedestrian delivery bicycle" speed="5.02" length="5.02" shape="643.20,262.21 641.84,262.37 640.86,262.94 640.27,263.90 640.06,265.27"/>
    </edge>
    <edge id=":7428923179_1" function="internal">
        <lane id=":7428923179_1_0" index="0" disallow="tram rail_urban rail rail_electric rail_fast ship" speed="13.89" length="9.50" shape="643.20,262.21 633.70,262.00"/>
    </edge>
    <edge id=":7428923179_2" function="internal">
        <lane id=":7428923179_2_0" index="0" allow="pedestrian delivery bicycle" speed="6.92" length="2.06" shape="643.20,262.21 641.17,261.87"/>
    </edge>
    <edge id=":7428923179_3" function="internal">
        <lane id=":7428923179_3_0" index="0" disallow="tram rail_urban rail rail_electric rail_fast ship" speed="3.65" length="2.34" shape="643.20,262.21 642.02,261.38 641.64,260.57"/>
    </edge>
    <edge id=":7428923179_16" function="internal">
        <lane id=":7428923179_16_0" index="0" allow="pedestrian delivery bicycle" speed="6.92" length="8.19" shape="641.17,261.87 640.44,261.75 638.47,260.52 637.29,258.52 636.92,255.75"/>
    </edge>
    <edge id=":7428923179_17" function="internal">
        <lane id=":7428923179_17_0" index="0" disallow="tram rail_urban rail rail_electric rail_fast ship" speed="3.65" length="2.34" shape="641.64,260.57 642.06,259.78 643.27,259.01"/>
    </edge>
    <edge id=":7428923179_4" function="internal">
        <lane id=":7428923179_4_0" index="0" allow="pedestrian delivery bicycle" speed="5.12" length="5.14" shape="640.12,255.77 640.31,257.16 640.89,258.16 641.88,258.78 643.27,259.01"/>
    </edge>
    <edge id=":7428923179_5" function="internal">
        <lane id=":7428923179_5_0" index="0" allow="pedestrian delivery bicycle" speed="5.56" length="9.50" shape="640.12,255.77 640.06,265.27"/>
    </edge>
    <edge id=":7428923179_6" function="internal">
        <lane id=":7428923179_6_0" index="0" allow="pedestrian delivery bicycle" speed="6.85" length="10.23" shape="640.12,255.77 639.70,258.55 638.49,260.51 636.49,261.66 633.70,262.00"/>
    </edge>
    <edge id=":7428923179_7" function="internal">
        <lane id=":7428923179_7_0" index="0" allow="pedestrian delivery bicycle" speed="3.65" length="4.67" shape="640.12,255.77 639.31,256.96 638.51,257.36 637.71,256.95 636.92,255.75"/>
    </edge>
    <edge id=":7428923179_8" function="internal">
        <lane id=":7428923179_8_0" index="0" allow="pedestrian delivery bicycle" speed="5.02" length="5.02" shape="633.77,258.80 635.14,258.64 636.12,258.07 636.71,257.11 636.92,255.75"/>
    </edge>
    <edge id=":7428923179_9" function="internal">
        <lane id=":7428923179_9_0" index="0" disallow="tram rail_urban rail rail_electric rail_fast ship" speed="13.89" length="9.50" shape="633.77,258.80 643.27,259.01"/>
    </edge>
    <edge id=":7428923179_10" function="internal">
        <lane id=":7428923179_10_0" index="0" allow="pedestrian delivery bicycle" speed="6.93" length="2.05" shape="633.77,258.80 635.80,259.14"/>
    </edge>
    <edge id=":7428923179_11" function="internal">
        <lane id=":7428923179_11_0" index="0" disallow="tram rail_urban rail rail_electric rail_fast ship" speed="3.65" length="2.34" shape="633.77,258.80 634.96,259.63 635.34,260.44"/>
    </edge>
    <edge id=":7428923179_18" function="internal">
        <lane id=":7428923179_18_0" index="0" allow="pedestrian delivery bicycle" speed="6.93" length="8.19" shape="635.80,259.14 636.53,259.26 638.50,260.49 639.68,262.49 640.06,265.27"/>
    </edge>
    <edge id=":7428923179_19" function="internal">
        <lane id=":7428923179_19_0" index="0" disallow="tram rail_urban rail rail_electric rail_fast ship" speed="3.65" length="2.34" shape="635.34,260.44 634.92,261.23 633.70,262.00"/>
    </edge>
    <edge id=":7428923179_12" function="internal">
        <lane id=":7428923179_12_0" index="0" allow="pedestrian delivery bicycle" speed="5.13" length="5.15" shape="636.86,265.25 636.67,263.86 636.08,262.85 635.09,262.23 633.70,262.00"/>
    </edge>
    <edge id=":7428923179_13" function="internal">
        <lane id=":7428923179_13_0" index="0" allow="pedestrian delivery bicycle" speed="5.56" length="9.51" shape="636.86,265.25 636.92,255.75"/>
    </edge>
    <edge id=":7428923179_14" function="internal">
        <lane id=":7428923179_14_0" index="0" allow="pedestrian delivery bicycle" speed="6.85" length="10.25" shape="636.86,265.25 637.27,262.47 638.48,260.50 640.48,259.35 643.27,259.01"/>
    </edge>
    <edge id=":7428923179_15" function="internal">
        <lane id=":7428923179_15_0" index="0" allow="pedestrian delivery bicycle" speed="3.65" length="4.67" shape="636.86,265.25 637.67,264.06 638.47,263.66 639.27,264.06 640.06,265.27"/>
    </edge>
    <edge id=":7428923180_0" function="internal">
        <lane id=":7428923180_0_0" index="0" allow="pedestrian delivery bicycle" speed="5.04" length="5.00" shape="642.40,449.92 641.04,450.10 640.07,450.67 639.47,451.63 639.26,452.98"/>
    </edge>
    <edge id=":7428923180_1" function="internal">
        <lane id=":7428923180_1_0" index="0" disallow="tram rail_urban rail rail_electric rail_fast ship" speed="13.89" length="9.44" shape="642.40,449.92 632.97,449.79"/>
    </edge>
    <edge id=":7428923180_2" function="internal">
        <lane id=":7428923180_2_0" index="0" allow="pedestrian delivery bicycle" speed="6.90" length="2.03" shape="642.40,449.92 640.40,449.61"/>
    </edge>
    <edge id=":7428923180_3" function="internal">
        <lane id=":7428923180_3_0" index="0" disallow="tram rail_urban rail rail_electric rail_fast ship" speed="3.65" length="2.34" shape="642.40,449.92 641.21,449.11 640.82,448.30"/>
    </edge>
    <edge id=":7428923180_16" function="internal">
        <lane id=":7428923180_16_0" index="0" allow="pedestrian delivery bicycle" speed="6.90" length="8.16" shape="640.40,449.61 639.65,449.49 637.69,448.28 636.52,446.29 636.14,443.52"/>
    </edge>
    <edge id=":7428923180_17" function="internal">
        <lane id=":7428923180_17_0" index="0" disallow="tram rail_urban rail rail_electric rail_fast ship" speed="3.65" length="2.34" shape="640.82,448.30 641.24,447.51 642.45,446.72"/>
    </edge>
    <edge id=":7428923180_4" function="internal">
        <lane id=":7428923180_4_0" index="0" allow="pedestrian delivery bicycle" speed="5.08" length="5.07" shape="639.34,443.53 639.53,444.91 640.11,445.90 641.08,446.51 642.45,446.72"/>
    </edge>
    <edge id=":7428923180_5" function="internal">
        <lane id=":7428923180_5_0" index="0" allow="pedestrian delivery bicycle" speed="5.56" length="9.45" shape="639.34,443.53 639.26,452.98"/>
    </edge>
    <edge id=":7428923180_6" function="internal">
        <lane id=":7428923180_6_0" index="0" allow="pedestrian delivery bicycle" speed="6.85" length="10.21" shape="639.34,443.53 638.93,446.30 637.73,448.27 635.74,449.43 632.97,449.79"/>
    </edge>
    <edge id=":7428923180_7" function="internal">
        <lane id=":7428923180_7_0" index="0" allow="pedestrian delivery bicycle" speed="3.65" length="4.67" shape="639.34,443.53 638.54,444.73 637.73,445.12 636.94,444.72 636.14,443.52"/>
    </edge>
    <edge id=":7428923180_8" function="internal">
        <lane id=":7428923180_8_0" index="0" allow="pedestrian delivery bicycle" speed="5.03" length="5.01" shape="633.01,446.59 634.38,446.41 635.35,445.84 635.94,444.88 636.14,443.52"/>
    </edge>