<?xml version="1.0" encoding="UTF-8"?>

<!-- generated on 2022-04-20 21:17:17 by Eclipse SUMO netconvert Version 1.10.0
<configuration xmlns:xsi="http://www.w3.org/2001/XMLSchema-instance" xsi:noNamespaceSchemaLocation="http://sumo.dlr.de/xsd/netconvertConfiguration.xsd">

    <input>
        <osm-files value="map.osm"/>
    </input>

    <output>
        <output-file value="/home/sheldon/Documents/FIIT/TP/maps_new/Vienna_25_cars/map.net.xml"/>
    </output>

    <projection>
        <proj.utm value="true"/>
    </projection>

    <report>
        <aggregate-warnings value="5"/>
    </report>

</configuration>
-->

<net version="1.9" junctionCornerDetail="5" limitTurnSpeed="5.50" xmlns:xsi="http://www.w3.org/2001/XMLSchema-instance" xsi:noNamespaceSchemaLocation="http://sumo.dlr.de/xsd/net_file.xsd">

    <location netOffset="-601673.63,-5339486.58" convBoundary="0.00,0.00,630.81,1236.83" origBoundary="16.368415,48.200464,16.376907,48.211501" projParameter="+proj=utm +zone=33 +ellps=WGS84 +datum=WGS84 +units=m +no_defs"/>

    <type id="highway.bridleway" priority="1" numLanes="1" speed="2.78" allow="pedestrian" oneway="1" width="2.00"/>
    <type id="highway.bus_guideway" priority="1" numLanes="1" speed="27.78" allow="bus" oneway="1"/>
    <type id="highway.cycleway" priority="1" numLanes="1" speed="8.33" allow="bicycle" oneway="0" width="1.00"/>
    <type id="highway.footway" priority="1" numLanes="1" speed="2.78" allow="pedestrian" oneway="1" width="2.00"/>
    <type id="highway.ford" priority="1" numLanes="1" speed="2.78" allow="army" oneway="0"/>
    <type id="highway.living_street" priority="2" numLanes="1" speed="2.78" disallow="tram rail_urban rail rail_electric rail_fast ship" oneway="0"/>
    <type id="highway.motorway" priority="14" numLanes="2" speed="39.44" allow="private emergency authority army vip passenger hov taxi bus coach delivery truck trailer motorcycle evehicle custom1 custom2" oneway="1"/>
    <type id="highway.motorway_link" priority="9" numLanes="1" speed="22.22" allow="private emergency authority army vip passenger hov taxi bus coach delivery truck trailer motorcycle evehicle custom1 custom2" oneway="1"/>
    <type id="highway.path" priority="1" numLanes="1" speed="2.78" allow="pedestrian bicycle" oneway="0" width="2.00"/>
    <type id="highway.pedestrian" priority="1" numLanes="1" speed="2.78" allow="pedestrian" oneway="1" width="2.00"/>
    <type id="highway.primary" priority="12" numLanes="2" speed="27.78" disallow="tram rail_urban rail rail_electric rail_fast ship" oneway="0"/>
    <type id="highway.primary_link" priority="7" numLanes="1" speed="22.22" disallow="tram rail_urban rail rail_electric rail_fast ship" oneway="0"/>
    <type id="highway.raceway" priority="15" numLanes="2" speed="83.33" allow="vip" oneway="0"/>
    <type id="highway.residential" priority="3" numLanes="1" speed="13.89" disallow="tram rail_urban rail rail_electric rail_fast ship" oneway="0"/>
    <type id="highway.secondary" priority="11" numLanes="1" speed="27.78" disallow="tram rail_urban rail rail_electric rail_fast ship" oneway="0"/>
    <type id="highway.secondary_link" priority="6" numLanes="1" speed="22.22" disallow="tram rail_urban rail rail_electric rail_fast ship" oneway="0"/>
    <type id="highway.service" priority="1" numLanes="1" speed="5.56" allow="pedestrian delivery bicycle" oneway="0"/>
    <type id="highway.stairs" priority="1" numLanes="1" speed="1.39" allow="pedestrian" oneway="1" width="2.00"/>
    <type id="highway.step" priority="1" numLanes="1" speed="1.39" allow="pedestrian" oneway="1" width="2.00"/>
    <type id="highway.steps" priority="1" numLanes="1" speed="1.39" allow="pedestrian" oneway="1" width="2.00"/>
    <type id="highway.tertiary" priority="10" numLanes="1" speed="22.22" disallow="tram rail_urban rail rail_electric rail_fast ship" oneway="0"/>
    <type id="highway.tertiary_link" priority="5" numLanes="1" speed="22.22" disallow="tram rail_urban rail rail_electric rail_fast ship" oneway="0"/>
    <type id="highway.track" priority="1" numLanes="1" speed="5.56" allow="pedestrian motorcycle moped bicycle" oneway="0"/>
    <type id="highway.trunk" priority="13" numLanes="2" speed="27.78" disallow="pedestrian bicycle tram rail_urban rail rail_electric rail_fast ship" oneway="0"/>
    <type id="highway.trunk_link" priority="8" numLanes="1" speed="22.22" disallow="pedestrian bicycle tram rail_urban rail rail_electric rail_fast ship" oneway="0"/>
    <type id="highway.unclassified" priority="4" numLanes="1" speed="13.89" disallow="tram rail_urban rail rail_electric rail_fast ship" oneway="0"/>
    <type id="highway.unsurfaced" priority="1" numLanes="1" speed="8.33" disallow="tram rail_urban rail rail_electric rail_fast ship" oneway="0"/>
    <type id="railway.highspeed" priority="21" numLanes="1" speed="69.44" allow="rail_fast" oneway="1"/>
    <type id="railway.light_rail" priority="19" numLanes="1" speed="27.78" allow="rail_urban" oneway="1"/>
    <type id="railway.preserved" priority="16" numLanes="1" speed="27.78" allow="rail" oneway="1"/>
    <type id="railway.rail" priority="20" numLanes="1" speed="44.44" allow="rail" oneway="1"/>
    <type id="railway.subway" priority="18" numLanes="1" speed="27.78" allow="rail_urban" oneway="1"/>
    <type id="railway.tram" priority="17" numLanes="1" speed="13.89" allow="tram" oneway="1"/>

    <edge id=":1462300859_0" function="internal">
        <lane id=":1462300859_0_0" index="0" disallow="tram rail_urban rail rail_electric rail_fast ship" speed="8.33" length="0.23" shape="584.44,343.90 584.24,344.03"/>
    </edge>
    <edge id=":1956992076_0" function="internal">
        <lane id=":1956992076_0_0" index="0" disallow="tram rail_urban rail rail_electric rail_fast ship" speed="8.33" length="0.30" shape="349.04,574.60 349.32,574.49"/>
    </edge>
    <edge id=":1956992079_0" function="internal">
        <lane id=":1956992079_0_0" index="0" disallow="tram rail_urban rail rail_electric rail_fast ship" speed="8.33" length="0.29" shape="309.14,589.04 309.41,588.95"/>
    </edge>
    <edge id=":2525544018_0" function="internal">
        <lane id=":2525544018_0_0" index="0" allow="rail_urban" speed="27.78" length="0.26" shape="159.19,601.28 159.19,601.53"/>
    </edge>
    <edge id=":2525544019_0" function="internal">
        <lane id=":2525544019_0_0" index="0" allow="rail_urban" speed="27.78" length="0.28" shape="144.90,603.20 144.91,602.93"/>
    </edge>
    <edge id=":286404471_0" function="internal">
        <lane id=":286404471_0_0" index="0" disallow="tram rail_urban rail rail_electric rail_fast ship" speed="3.65" length="4.67" shape="255.59,522.96 254.18,522.69 253.50,522.11 253.56,521.21 254.36,520.01"/>
    </edge>
    <edge id=":286404816_0" function="internal">
        <lane id=":286404816_0_0" index="0" disallow="tram rail_urban rail rail_electric rail_fast ship" speed="3.65" length="4.67" shape="149.18,472.70 150.57,473.12 151.18,473.77 151.03,474.65 150.12,475.76"/>
    </edge>
    <edge id=":286404871_0" function="internal">
        <lane id=":286404871_0_0" index="0" disallow="tram rail_urban rail rail_electric rail_fast ship" speed="3.65" length="4.67" shape="132.90,418.58 134.29,418.98 134.91,419.63 134.77,420.51 133.87,421.63"/>
    </edge>
    <edge id=":286404903_0" function="internal">
        <lane id=":286404903_0_0" index="0" disallow="tram rail_urban rail rail_electric rail_fast ship" speed="3.65" length="4.67" shape="279.03,600.89 277.64,600.50 277.01,599.86 277.14,598.98 278.04,597.84"/>
    </edge>
    <edge id=":289462942_0" function="internal">
        <lane id=":289462942_0_0" index="0" allow="pedestrian delivery bicycle" speed="3.97" length="1.90" shape="159.81,583.32 160.30,583.45 160.68,583.69 160.96,584.05 161.14,584.51"/>
    </edge>
    <edge id=":289462965_0" function="internal">
        <lane id=":289462965_0_0" index="0" allow="pedestrian delivery bicycle" speed="7.91" length="6.23" shape="133.12,577.75 133.92,578.61 135.11,579.31 136.69,579.85 138.66,580.24"/>
    </edge>
    <edge id=":289462965_1" function="internal">
        <lane id=":289462965_1_0" index="0" disallow="tram rail_urban rail rail_electric rail_fast ship" speed="8.33" length="6.59" shape="133.12,577.75 134.15,579.41 134.78,580.59 135.31,581.82 136.08,583.63"/>
    </edge>
    <edge id=":291222790_0" function="internal">
        <lane id=":291222790_0_0" index="0" disallow="tram rail_urban rail rail_electric rail_fast ship" speed="8.33" length="3.74" shape="425.69,654.00 426.18,653.02 426.64,652.43 427.23,651.92 428.08,651.20"/>
    </edge>
    <edge id=":314426025_0" function="internal">
        <lane id=":314426025_0_0" index="0" disallow="tram rail_urban rail rail_electric rail_fast ship" speed="8.33" length="9.51" shape="151.98,634.35 154.85,643.41"/>
    </edge>
    <edge id=":314426025_1" function="internal">
        <lane id=":314426025_1_0" index="0" disallow="tram rail_urban rail rail_electric rail_fast ship" speed="6.82" length="8.20" shape="151.98,634.35 152.55,636.99 152.54,639.13 151.94,640.75 150.75,641.87"/>
    </edge>
    <edge id=":314426025_2" function="internal">
        <lane id=":314426025_2_0" index="0" disallow="tram rail_urban rail rail_electric rail_fast ship" speed="5.90" length="8.38" shape="149.14,639.10 150.84,638.59 152.36,639.14 153.69,640.74 154.85,643.41"/>
    </edge>
    <edge id=":314426025_3" function="internal">
        <lane id=":314426025_3_0" index="0" disallow="tram rail_urban rail rail_electric rail_fast ship" speed="3.65" length="4.67" shape="149.14,639.10 150.58,639.19 151.33,639.68 151.39,640.57 150.75,641.87"/>
    </edge>
    <edge id=":33182914_0" function="internal">
        <lane id=":33182914_0_0" index="0" disallow="tram rail_urban rail rail_electric rail_fast ship" speed="3.65" length="4.67" shape="30.59,586.44 29.19,586.07 28.56,585.44 28.68,584.56 29.56,583.41"/>
    </edge>
    <edge id=":33182915_0" function="internal">
        <lane id=":33182915_0_0" index="0" disallow="tram rail_urban rail rail_electric rail_fast ship" speed="3.65" length="4.67" shape="83.93,680.50 82.51,680.27 81.81,679.71 81.85,678.81 82.61,677.59"/>
    </edge>
    <edge id=":33182918_0" function="internal">
        <lane id=":33182918_0_0" index="0" disallow="tram rail_urban rail rail_electric rail_fast ship" speed="6.11" length="9.06" shape="86.82,495.05 84.50,496.14 83.25,497.66 83.08,499.63 83.97,502.02"/>
    </edge>
    <edge id=":33182918_1" function="internal">
        <lane id=":33182918_1_0" index="0" disallow="tram rail_urban rail rail_electric rail_fast ship" speed="6.94" length="12.18" shape="86.82,495.05 83.59,495.79 80.82,496.14 78.07,496.57 74.93,497.55"/>
    </edge>
    <edge id=":33182918_2" function="internal">
        <lane id=":33182918_2_0" index="0" disallow="tram rail_urban rail rail_electric rail_fast ship" speed="3.65" length="4.67" shape="86.82,495.05 85.44,494.63 84.82,493.99 84.97,493.10 85.89,491.99"/>
    </edge>
    <edge id=":33182918_3" function="internal">
        <lane id=":33182918_3_0" index="0" disallow="tram rail_urban rail rail_electric rail_fast ship" speed="7.49" length="10.21" shape="76.90,489.35 78.44,491.23 80.45,492.30 82.93,492.55 85.89,491.99"/>
    </edge>
    <edge id=":33182918_4" function="internal">
        <lane id=":33182918_4_0" index="0" disallow="tram rail_urban rail rail_electric rail_fast ship" speed="6.50" length="9.91" shape="76.90,489.35 78.06,492.11 78.12,494.40 77.08,496.22 74.93,497.55"/>
    </edge>
    <edge id=":33182926_0" function="internal">
        <lane id=":33182926_0_0" index="0" disallow="tram rail_urban rail rail_electric rail_fast ship" speed="8.33" length="9.36" shape="100.19,531.65 104.85,539.77"/>
    </edge>
    <edge id=":33182926_1" function="internal">
        <lane id=":33182926_1_0" index="0" disallow="tram rail_urban rail rail_electric rail_fast ship" speed="6.35" length="7.86" shape="100.19,531.65 101.32,534.13 101.76,536.15 101.51,537.73 100.56,538.85"/>
    </edge>
    <edge id=":33182926_2" function="internal">
        <lane id=":33182926_2_0" index="0" disallow="tram rail_urban rail rail_electric rail_fast ship" speed="6.01" length="7.95" shape="98.73,536.22 100.17,535.71 101.67,536.13 103.23,537.49 104.85,539.77"/>
    </edge>
    <edge id=":33182926_3" function="internal">
        <lane id=":33182926_3_0" index="0" disallow="tram rail_urban rail rail_electric rail_fast ship" speed="3.65" length="4.67" shape="98.73,536.22 100.17,536.20 100.96,536.62 101.09,537.51 100.56,538.85"/>
    </edge>
    <edge id=":33182930_0" function="internal">
        <lane id=":33182930_0_0" index="0" disallow="tram rail_urban rail rail_electric rail_fast ship" speed="8.33" length="5.15" shape="122.98,566.51 126.78,569.99"/>
    </edge>
    <edge id=":33182931_0" function="internal">
        <lane id=":33182931_0_0" index="0" allow="pedestrian delivery bicycle" speed="7.82" length="5.51" shape="168.61,612.23 169.18,613.82 169.87,615.10 170.66,616.07 171.57,616.73"/>
    </edge>
    <edge id=":33182931_1" function="internal">
        <lane id=":33182931_1_0" index="0" allow="pedestrian delivery bicycle" speed="4.79" length="5.38" shape="168.61,612.23 168.84,613.75 168.48,614.85 167.54,615.50 166.01,615.73"/>
    </edge>
    <edge id=":33182932_0" function="internal">
        <lane id=":33182932_0_0" index="0" allow="pedestrian delivery bicycle" speed="8.33" length="5.03" shape="178.04,628.24 179.42,633.08"/>
    </edge>
    <edge id=":33182933_0" function="internal">
        <lane id=":33182933_0_0" index="0" allow="pedestrian delivery bicycle" speed="8.33" length="11.65" shape="180.39,643.77 178.97,646.73 177.62,649.06 176.72,651.45 176.66,654.57"/>
    </edge>
    <edge id=":33182933_1" function="internal">
        <lane id=":33182933_1_0" index="0" allow="pedestrian delivery bicycle" speed="8.33" length="12.10" shape="180.39,643.77 178.84,647.15 177.05,649.76 175.03,651.58 172.77,652.63"/>
    </edge>
    <edge id=":33182933_2" function="internal">
        <lane id=":33182933_2_0" index="0" allow="pedestrian delivery bicycle" speed="6.09" length="8.62" shape="171.11,649.76 173.24,649.57 174.88,650.31 176.02,651.98 176.66,654.57"/>
    </edge>
    <edge id=":33182933_3" function="internal">
        <lane id=":33182933_3_0" index="0" allow="pedestrian delivery bicycle" speed="3.69" length="4.83" shape="171.11,649.76 172.60,649.86 173.37,650.36 173.43,651.29 172.77,652.63"/>
    </edge>
    <edge id=":33182934_0" function="internal">
        <lane id=":33182934_0_0" index="0" allow="pedestrian delivery bicycle" speed="4.80" length="5.93" shape="166.69,653.78 164.87,654.00 163.81,654.68 163.52,655.82 163.99,657.41"/>
    </edge>
    <edge id=":33182934_1" function="internal">
        <lane id=":33182934_1_0" index="0" allow="pedestrian delivery bicycle" speed="3.68" length="4.80" shape="166.69,653.78 165.68,652.69 165.47,651.80 166.07,651.10 167.46,650.59"/>
    </edge>
    <edge id=":33182934_2" function="internal">
        <lane id=":33182934_2_0" index="0" allow="pedestrian delivery bicycle" speed="8.33" length="8.34" shape="159.33,650.28 161.53,651.15 163.20,651.16 164.97,650.81 167.46,650.59"/>
    </edge>
    <edge id=":33182934_3" function="internal">
        <lane id=":33182934_3_0" index="0" disallow="tram rail_urban rail rail_electric rail_fast ship" speed="8.33" length="8.81" shape="159.33,650.28 161.38,651.72 162.38,653.17 163.02,654.96 163.99,657.41"/>
    </edge>
    <edge id=":33182936_0" function="internal">
        <lane id=":33182936_0_0" index="0" allow="pedestrian delivery bicycle" speed="8.33" length="7.16" shape="152.25,621.80 151.11,623.86 150.40,625.66 150.11,627.21 150.24,628.50"/>
    </edge>
    <edge id=":33182936_1" function="internal">
        <lane id=":33182936_1_0" index="0" disallow="tram rail_urban rail rail_electric rail_fast ship" speed="8.33" length="7.46" shape="148.08,621.35 150.24,628.50"/>
    </edge>
    <edge id=":33182941_0" function="internal">
        <lane id=":33182941_0_0" index="0" disallow="tram rail_urban rail rail_electric rail_fast ship" speed="3.65" length="4.67" shape="156.90,715.97 157.72,717.16 157.79,718.05 157.12,718.64 155.70,718.93"/>
    </edge>
    <edge id=":33182942_0" function="internal">
        <lane id=":33182942_0_0" index="0" disallow="tram rail_urban rail rail_electric rail_fast ship" speed="6.41" length="9.04" shape="125.33,665.70 123.95,663.62 122.25,662.52 120.23,662.40 117.89,663.25"/>
    </edge>
    <edge id=":33182942_1" function="internal">
        <lane id=":33182942_1_0" index="0" disallow="tram rail_urban rail rail_electric rail_fast ship" speed="8.33" length="13.80" shape="125.33,665.70 124.04,662.05 123.75,658.67 124.48,655.55 126.21,652.70"/>
    </edge>
    <edge id=":33182942_2" function="internal">
        <lane id=":33182942_2_0" index="0" disallow="tram rail_urban rail rail_electric rail_fast ship" speed="3.65" length="4.67" shape="125.33,665.70 125.54,664.27 126.09,663.57 126.98,663.58 128.22,664.32"/>
    </edge>
    <edge id=":33182942_3" function="internal">
        <lane id=":33182942_3_0" index="0" disallow="tram rail_urban rail rail_electric rail_fast ship" speed="7.19" length="10.55" shape="128.68,654.74 127.18,656.20 126.60,658.28 126.95,660.99 128.22,664.32"/>
    </edge>
    <edge id=":33182942_4" function="internal">
        <lane id=":33182942_4_0" index="0" disallow="tram rail_urban rail rail_electric rail_fast ship" speed="8.33" length="13.77" shape="128.68,654.74 125.79,656.80 123.32,659.06 120.83,661.28 117.89,663.25"/>
    </edge>
    <edge id=":33182942_5" function="internal">
        <lane id=":33182942_5_0" index="0" disallow="tram rail_urban rail rail_electric rail_fast ship" speed="3.82" length="4.67" shape="128.68,654.74 127.30,655.16 126.42,654.95 126.06,654.14 126.21,652.70"/>
    </edge>
    <edge id=":33182942_6" function="internal">
        <lane id=":33182942_6_0" index="0" disallow="tram rail_urban rail rail_electric rail_fast ship" speed="8.33" length="12.60" shape="116.38,660.42 119.33,658.77 121.76,657.13 123.96,655.21 126.21,652.70"/>
    </edge>
    <edge id=":33182942_7" function="internal">
        <lane id=":33182942_7_0" index="0" disallow="tram rail_urban rail rail_electric rail_fast ship" speed="7.92" length="14.37" shape="116.38,660.42 120.10,659.07 123.32,659.27 126.03,661.02 128.22,664.32"/>
    </edge>
    <edge id=":33182942_8" function="internal">
        <lane id=":33182942_8_0" index="0" disallow="tram rail_urban rail rail_electric rail_fast ship" speed="3.65" length="4.67" shape="116.38,660.42 117.81,660.56 118.54,661.08 118.57,661.98 117.89,663.25"/>
    </edge>
    <edge id=":33182950_0" function="internal">
        <lane id=":33182950_0_0" index="0" disallow="tram rail_urban rail rail_electric rail_fast ship" speed="8.33" length="4.60" shape="423.26,658.13 424.03,657.00 424.57,656.23 425.05,655.43 425.62,654.19"/>
    </edge>
    <edge id=":33182954_0" function="internal">
        <lane id=":33182954_0_0" index="0" disallow="tram rail_urban rail rail_electric rail_fast ship" speed="6.63" length="9.06" shape="290.39,603.23 289.17,600.98 287.58,599.60 285.62,599.11 283.28,599.50"/>
    </edge>
    <edge id=":33182954_1" function="internal">
        <lane id=":33182954_1_0" index="0" disallow="tram rail_urban rail rail_electric rail_fast ship" speed="6.96" length="10.78" shape="290.39,603.23 289.60,600.10 289.87,597.58 291.19,595.67 293.56,594.38"/>
    </edge>
    <edge id=":33182954_2" function="internal">
        <lane id=":33182954_2_0" index="0" disallow="tram rail_urban rail rail_electric rail_fast ship" speed="8.33" length="11.49" shape="282.29,596.46 285.39,595.70 287.93,595.44 290.47,595.17 293.56,594.38"/>
    </edge>
    <edge id=":33182954_3" function="internal">
        <lane id=":33182954_3_0" index="0" disallow="tram rail_urban rail rail_electric rail_fast ship" speed="3.65" length="4.67" shape="282.29,596.46 283.68,596.84 284.30,597.48 284.17,598.36 283.28,599.50"/>
    </edge>
    <edge id=":33182956_0" function="internal">
        <lane id=":33182956_0_0" index="0" disallow="tram rail_urban rail rail_electric rail_fast ship" speed="5.92" length="9.10" shape="451.50,520.94 452.67,523.28 454.22,524.42 456.15,524.36 458.44,523.09"/>
    </edge>
    <edge id=":33182956_1" function="internal">
        <lane id=":33182956_1_0" index="0" disallow="tram rail_urban rail rail_electric rail_fast ship" speed="8.33" length="12.01" shape="451.50,520.94 452.67,524.01 454.00,526.38 455.77,528.44 458.27,530.58"/>
    </edge>
    <edge id=":33182956_2" function="internal">
        <lane id=":33182956_2_0" index="0" disallow="tram rail_urban rail rail_electric rail_fast ship" speed="8.33" length="11.59" shape="449.57,530.53 451.93,528.34 453.87,526.65 455.88,525.04 458.44,523.09"/>
    </edge>
    <edge id=":33182956_3" function="internal">
        <lane id=":33182956_3_0" index="0" disallow="tram rail_urban rail rail_electric rail_fast ship" speed="7.07" length="9.61" shape="449.57,530.53 451.58,529.15 453.70,528.70 455.93,529.17 458.27,530.58"/>
    </edge>
    <edge id=":33182958_0" function="internal">
        <lane id=":33182958_0_0" index="0" disallow="tram rail_urban rail rail_electric rail_fast ship" speed="8.33" length="10.98" shape="430.01,444.18 428.72,445.96 428.15,448.28 428.30,451.15 429.18,454.55"/>
    </edge>
    <edge id=":33182958_1" function="internal">
        <lane id=":33182958_1_0" index="0" disallow="tram rail_urban rail rail_electric rail_fast ship" speed="8.33" length="11.87" shape="430.01,444.18 427.75,446.53 426.06,448.64 424.30,450.64 421.78,452.68"/>
    </edge>
    <edge id=":33182958_2" function="internal">
        <lane id=":33182958_2_0" index="0" disallow="tram rail_urban rail rail_electric rail_fast ship" speed="6.74" length="10.24" shape="430.01,444.18 427.92,445.47 425.78,445.58 423.58,444.51 421.32,442.25"/>
    </edge>
    <edge id=":33182958_3" function="internal">
        <lane id=":33182958_3_0" index="0" disallow="tram rail_urban rail rail_electric rail_fast ship" speed="6.38" length="9.17" shape="419.99,450.03 421.91,448.30 422.78,446.42 422.58,444.41 421.32,442.25"/>
    </edge>
    <edge id=":33182958_4" function="internal">
        <lane id=":33182958_4_0" index="0" disallow="tram rail_urban rail rail_electric rail_fast ship" speed="6.92" length="12.51" shape="419.99,450.03 422.90,448.73 425.41,449.05 427.50,450.99 429.18,454.55"/>
    </edge>
    <edge id=":33182958_5" function="internal">
        <lane id=":33182958_5_0" index="0" disallow="tram rail_urban rail rail_electric rail_fast ship" speed="3.65" length="4.67" shape="419.99,450.03 421.43,450.02 422.21,450.46 422.33,451.34 421.78,452.68"/>
    </edge>
    <edge id=":33182960_0" function="internal">
        <lane id=":33182960_0_0" index="0" disallow="tram rail_urban rail rail_electric rail_fast ship" speed="6.10" length="9.06" shape="58.56,445.39 56.25,446.50 55.02,448.04 54.88,450.00 55.82,452.38"/>
    </edge>
    <edge id=":33182960_1" function="internal">
        <lane id=":33182960_1_0" index="0" disallow="tram rail_urban rail rail_electric rail_fast ship" speed="3.65" length="4.67" shape="58.56,445.39 57.18,444.99 56.55,444.34 56.70,443.46 57.60,442.34"/>
    </edge>
    <edge id=":33182970_0" function="internal">
        <lane id=":33182970_0_0" index="0" disallow="tram rail_urban rail rail_electric rail_fast ship" speed="8.33" length="5.01" shape="311.52,662.58 310.09,657.77"/>
    </edge>

    <edge id="-116758236" from="33182933" to="33182934" priority="1" type="highway.service" shape="175.94,648.96 172.26,651.10 168.30,652.19 164.88,652.17 161.10,651.25">
        <lane id="-116758236_0" index="0" allow="pedestrian delivery bicycle" speed="8.33" length="6.24" shape="172.77,652.63 168.51,653.79 166.69,653.78"/>
    </edge>
    <edge id="-116758237" from="33182942" to="33182941" priority="3" type="highway.residential" shape="123.62,658.38 150.68,715.18 156.30,717.45">
        <lane id="-116758237_0" index="0" disallow="tram rail_urban rail rail_electric rail_fast ship" speed="8.33" length="60.39" shape="128.22,664.32 151.86,713.93 156.90,715.97"/>
    </edge>
    <edge id="-26154250" from="33182958" to="286404471" priority="3" type="highway.residential" shape="425.77,448.05 418.12,453.23 253.60,522.06">
        <lane id="-26154250_0" index="0" disallow="tram rail_urban rail rail_electric rail_fast ship" speed="8.33" length="180.51" shape="421.78,452.68 418.88,454.65 255.59,522.96"/>
    </edge>
    <edge id="-26154324" from="33182960" to="286404871" priority="2" type="highway.living_street">
        <lane id="-26154324_0" index="0" disallow="tram rail_urban rail rail_electric rail_fast ship" speed="5.56" length="78.96" shape="57.60,442.34 132.90,418.58"/>
    </edge>
    <edge id="-26154331" from="33182954" to="286404903" priority="3" type="highway.residential">
        <lane id="-26154331_0" index="0" disallow="tram rail_urban rail rail_electric rail_fast ship" speed="8.33" length="4.47" shape="283.28,599.50 279.03,600.89"/>
    </edge>
    <edge id="-26158696" from="286404816" to="33182918" priority="3" type="highway.residential">
        <lane id="-26158696_0" index="0" disallow="tram rail_urban rail rail_electric rail_fast ship" speed="8.33" length="66.17" shape="150.12,475.76 86.82,495.05"/>
    </edge>
    <edge id="-4997584#0" from="33182942" to="314426025" priority="3" type="highway.residential" shape="123.62,658.38 127.63,653.50 153.24,638.57">
        <lane id="-4997584#0_0" index="0" disallow="tram rail_urban rail rail_electric rail_fast ship" speed="8.33" length="26.69" shape="126.21,652.70 126.57,652.26 149.14,639.10"/>
    </edge>
    <edge id="-4997584#1" from="33182915" to="33182942" priority="3" type="highway.residential" shape="83.27,679.05 93.88,674.24 123.62,658.38">
        <lane id="-4997584#1_0" index="0" disallow="tram rail_urban rail rail_electric rail_fast ship" speed="8.33" length="37.90" shape="82.61,677.59 93.17,672.81 116.38,660.42"/>
    </edge>
    <edge id="-4997586" from="33182914" to="33182926" priority="3" type="highway.residential" shape="30.07,584.93 32.97,583.95 102.37,535.64">
        <lane id="-4997586_0" index="0" disallow="tram rail_urban rail rail_electric rail_fast ship" speed="8.33" length="83.84" shape="29.56,583.41 32.24,582.50 98.73,536.22"/>
    </edge>
    <edge id="116758235" from="33182931" to="33182936" priority="1" type="highway.service" spreadType="center" shape="169.65,615.71 165.53,615.73 161.26,616.65 157.53,618.24 152.93,620.70 151.07,623.71 149.63,626.43">
        <lane id="116758235_0" index="0" allow="pedestrian delivery bicycle" speed="8.33" length="15.41" shape="166.01,615.73 165.53,615.73 161.26,616.65 157.53,618.24 152.93,620.70 152.25,621.80"/>
    </edge>
    <edge id="116758236" from="33182934" to="33182933" priority="1" type="highway.service" shape="161.10,651.25 164.88,652.17 168.30,652.19 172.26,651.10 175.94,648.96">
        <lane id="116758236_0" index="0" allow="pedestrian delivery bicycle" speed="8.33" length="3.77" shape="167.46,650.59 168.08,650.59 171.11,649.76"/>
    </edge>
    <edge id="116758237" from="33182941" to="33182942" priority="3" type="highway.residential" shape="156.30,717.45 150.68,715.18 123.62,658.38">
        <lane id="116758237_0" index="0" disallow="tram rail_urban rail rail_electric rail_fast ship" speed="8.33" length="62.88" shape="155.70,718.93 149.50,716.43 125.33,665.70"/>
    </edge>
    <edge id="116758238" from="33182976" to="3609966772" priority="1" type="highway.pedestrian" spreadType="center">
        <lane id="116758238_0" index="0" allow="pedestrian" speed="2.78" length="15.64" width="2.00" shape="414.30,637.33 423.72,649.82"/>
    </edge>
    <edge id="116758239#0" from="291222866" to="33182950" priority="3" type="highway.residential" spreadType="center">
        <lane id="116758239#0_0" index="0" disallow="tram rail_urban rail rail_electric rail_fast ship" speed="8.33" length="23.44" shape="410.56,677.83 423.26,658.13"/>
    </edge>
    <edge id="116758239#1" from="33182950" to="291222790" priority="3" type="highway.residential" spreadType="center">
        <lane id="116758239#1_0" index="0" disallow="tram rail_urban rail rail_electric rail_fast ship" speed="8.33" length="0.20" shape="425.62,654.19 425.69,654.00"/>
    </edge>
    <edge id="116758240" from="291222790" to="48210067" priority="3" type="highway.residential" spreadType="center" shape="426.12,652.98 463.99,618.59 480.31,611.25 512.10,586.60 518.42,577.70">
        <lane id="116758240_0" index="0" disallow="tram rail_urban rail rail_electric rail_fast ship" speed="8.33" length="114.52" shape="428.08,651.20 463.99,618.59 480.31,611.25 512.10,586.60 516.67,580.16"/>
    </edge>
    <edge id="185127704" from="1956992079" to="1956992076" priority="3" type="highway.residential" spreadType="center">
        <lane id="185127704_0" index="0" disallow="tram rail_urban rail rail_electric rail_fast ship" speed="8.33" length="42.14" shape="309.41,588.95 349.04,574.60"/>
    </edge>
    <edge id="185127705" from="1956992076" to="33182956" priority="3" type="highway.residential" spreadType="center" shape="349.18,574.55 405.24,554.16 444.97,534.90 453.48,526.83">
        <lane id="185127705_0" index="0" disallow="tram rail_urban rail rail_electric rail_fast ship" speed="8.33" length="110.00" shape="349.32,574.49 405.24,554.16 444.97,534.90 449.57,530.53"/>
    </edge>
    <edge id="261458721" from="33182960" to="33182918" priority="3" type="highway.residential" spreadType="center">
        <lane id="261458721_0" index="0" disallow="tram rail_urban rail rail_electric rail_fast ship" speed="8.33" length="42.55" shape="55.82,452.38 76.90,489.35"/>
    </edge>
    <edge id="26154250" from="286404471" to="33182958" priority="3" type="highway.residential" shape="253.60,522.06 418.12,453.23 425.77,448.05">