<?xml version="1.0" encoding="UTF-8"?>

<!-- generated on 2022-04-24 17:26:22 by Eclipse SUMO duarouter Version 1.12.0
<configuration xmlns:xsi="http://www.w3.org/2001/XMLSchema-instance" xsi:noNamespaceSchemaLocation="http://sumo.dlr.de/xsd/duarouterConfiguration.xsd">

    <input>
        <net-file value="map.net.xml"/>
        <route-files value="trips.xml"/>
    </input>

    <output>
        <output-file value="routes.rou.xml"/>
        <alternatives-output value="routes.rou.alt.xml"/>
    </output>

    <time>
        <begin value="0"/>
        <end value="60"/>
    </time>

    <report>
        <no-warnings value="true"/>
        <ignore-errors value="true"/>
        <no-step-log value="true"/>
    </report>

</configuration>
-->

<routes xmlns:xsi="http://www.w3.org/2001/XMLSchema-instance" xsi:noNamespaceSchemaLocation="http://sumo.dlr.de/xsd/routes_file.xsd">
    <vehicle id="2" depart="1.00">
        <route edges="496978510#0 496978510#1 196117090#0 196117090#1 196117090#2 196117090#3 196117090#4 196117090#5 196117090#6 196117090#7 196117090#8"/>
    </vehicle>
    <vehicle id="3" depart="1.50">
        <route edges="5671359#0 5671359#1 196117090#0 196117090#1"/>
    </vehicle>
    <vehicle id="5" depart="2.50">
        <route edges="196117090#2 196117090#3 196117090#4 196117090#5 196117090#6"/>
    </vehicle>
    <vehicle id="6" depart="3.00">
        <route edges="196117090#0 196117090#1 196117090#2"/>
    </vehicle>
    <vehicle id="8" depart="4.00">
        <route edges="196117090#2 196117090#3 196117090#4 196117090#5 196117090#6 196117090#7"/>
    </vehicle>
    <vehicle id="9" depart="4.50">
        <route edges="496978510#1 196117090#0"/>
    </vehicle>
    <vehicle id="10" depart="5.00">
        <route edges="496978510#1 347306313#0"/>
    </vehicle>
    <vehicle id="12" depart="6.00">
        <route edges="5671359#1 196117090#0 196117090#1 196117090#2 196117090#3 196117090#4"/>
    </vehicle>
    <vehicle id="13" depart="6.50">
        <route edges="196117090#1"/>
    </vehicle>
    <vehicle id="14" depart="7.00">
        <route edges="5671359#0 5671359#1 196117090#0 196117090#1 196117090#2 196117090#3 196117090#4 196117090#5 196117090#6 196117090#7"/>
    </vehicle>
    <vehicle id="15" depart="7.50">
        <route edges="496978510#1 347306313#0"/>
    </vehicle>
    <vehicle id="17" depart="8.50">
        <route edges="196117090#4 196117090#5 196117090#6 196117090#7"/>
    </vehicle>
    <vehicle id="18" depart="9.00">
        <route edges="496978510#1 196117090#0 196117090#1 196117090#2 196117090#3 196117090#4 196117090#5 196117090#6 196117090#7 196117090#8"/>
    </vehicle>
    <vehicle id="19" depart="9.50">
        <route edges="5671359#0 5671359#1 196117090#0 196117090#1 196117090#2 196117090#3 196117090#4 196117090#5 196117090#6 196117090#7"/>
    </vehicle>
    <vehicle id="20" depart="10.00">
        <route edges="496978510#0 496978510#1 196117090#0"/>
    </vehicle>
    <vehicle id="21" depart="10.50">
        <route edges="196117090#2 196117090#3"/>
    </vehicle>
    <vehicle id="22" depart="11.00">
        <route edges="196117090#1 196117090#2 196117090#3"/>
    </vehicle>
    <vehicle id="23" depart="11.50">
        <route edges="196117090#1 196117090#2 196117090#3"/>
    </vehicle>
    <vehicle id="29" depart="14.50">
        <route edges="196117090#2 196117090#3 196117090#4"/>
    </vehicle>
    <vehicle id="30" depart="15.00">
        <route edges="5671359#1 196117090#0 196117090#1 196117090#2 196117090#3 196117090#4 196117090#5 196117090#6 196117090#7 196117090#8"/>
    </vehicle>
    <vehicle id="31" depart="15.50">
        <route edges="196117090#7 196117090#8"/>
    </vehicle>
    <vehicle id="32" depart="16.00">
        <route edges="496978510#1 347306313#0 347306313#1"/>
    </vehicle>
    <vehicle id="36" depart="18.00">
        <route edges="5671359#0 5671359#1 196117090#0 196117090#1 196117090#2 196117090#3 196117090#4"/>
    </vehicle>
    <vehicle id="38" depart="19.00">
        <route edges="5671359#0 5671359#1 196117090#0 196117090#1 196117090#2 196117090#3 196117090#4 196117090#5"/>
    </vehicle>
    <vehicle id="39" depart="19.50">
        <route edges="196117090#3"/>
    </vehicle>
    <vehicle id="43" depart="21.50">
        <route edges="5671359#1 196117090#0 196117090#1 196117090#2 196117090#3 196117090#4 196117090#5 196117090#6"/>
    </vehicle>
    <vehicle id="45" depart="22.50">
        <route edges="196117090#1 196117090#2 196117090#3 196117090#4 196117090#5 196117090#6 196117090#7 196117090#8"/>
    </vehicle>
    <vehicle id="46" depart="23.00">
        <route edges="496978510#1 196117090#0 196117090#1 196117090#2 196117090#3 196117090#4 196117090#5"/>
    </vehicle>
    <vehicle id="47" depart="23.50">
        <route edges="196117090#0 196117090#1 196117090#2 196117090#3 196117090#4"/>
    </vehicle>
    <vehicle id="48" depart="24.00">
        <route edges="5671359#1 196117090#0 196117090#1 196117090#2 196117090#3 196117090#4 196117090#5 196117090#6"/>
    </vehicle>
    <vehicle id="52" depart="26.00">
        <route edges="196117090#3 196117090#4 196117090#5 196117090#6 196117090#7 196117090#8"/>
    </vehicle>
    <vehicle id="53" depart="26.50">
        <route edges="196117090#1 196117090#2 196117090#3 196117090#4 196117090#5"/>
    </vehicle>
    <vehicle id="55" depart="27.50">
        <route edges="5671359#0 5671359#1 196117090#0 196117090#1 196117090#2 196117090#3"/>
    </vehicle>
    <vehicle id="58" depart="29.00">
        <route edges="196117090#3 196117090#4 196117090#5 196117090#6 196117090#7 196117090#8"/>
    </vehicle>
    <vehicle id="60" depart="30.00">
        <route edges="496978510#0 496978510#1 196117090#0 196117090#1 196117090#2 196117090#3 196117090#4 196117090#5 196117090#6 196117090#7"/>
    </vehicle>
    <vehicle id="61" depart="30.50">
        <route edges="496978510#1 196117090#0 196117090#1 196117090#2 196117090#3 196117090#4 196117090#5 196117090#6"/>
    </vehicle>
    <vehicle id="62" depart="31.00">
        <route edges="196117090#0 196117090#1 196117090#2 196117090#3 196117090#4"/>
    </vehicle>
    <vehicle id="64" depart="32.00">
        <route edges="5671359#0 5671359#1 347306313#0 347306313#1"/>
    </vehicle>
    <vehicle id="66" depart="33.00">
        <route edges="5671359#0 5671359#1"/>
    </vehicle>
    <vehicle id="67" depart="33.50">
        <route edges="196117090#1 196117090#2 196117090#3 196117090#4 196117090#5 196117090#6"/>
    </vehicle>
    <vehicle id="69" depart="34.50">
        <route edges="496978510#0 496978510#1 196117090#0 196117090#1"/>
    </vehicle>
    <vehicle id="70" depart="35.00">
        <route edges="196117090#6 196117090#7"/>
    </vehicle>
    <vehicle id="74" depart="37.00">
        <route edges="196117090#2 196117090#3 196117090#4"/>
    </vehicle>
    <vehicle id="75" depart="37.50">
        <route edges="5671359#1 196117090#0 196117090#1 196117090#2 196117090#3 196117090#4 196117090#5 196117090#6 196117090#7 196117090#8"/>
    </vehicle>
    <vehicle id="76" depart="38.00">
        <route edges="196117090#5 196117090#6"/>
    </vehicle>
    <vehicle id="77" depart="38.50">
        <route edges="196117090#1 196117090#2"/>
    </vehicle>
    <vehicle id="78" depart="39.00">
        <route edges="196117090#4 196117090#5 196117090#6 196117090#7"/>
    </vehicle>
    <vehicle id="79" depart="39.50">
        <route edges="196117090#2"/>
    </vehicle>
    <vehicle id="80" depart="40.00">
        <route edges="196117090#0 196117090#1 196117090#2 196117090#3 196117090#4 196117090#5 196117090#6 196117090#7 196117090#8"/>
    </vehicle>
    <vehicle id="82" depart="41.00">
        <route edges="5671359#0 5671359#1 196117090#0"/>
    </vehicle>
    <vehicle id="83" depart="41.50">
        <route edges="196117090#3 196117090#4 196117090#5 196117090#6 196117090#7 196117090#8"/>
    </vehicle>
    <vehicle id="85" depart="42.50">
        <route edges="5671359#1 196117090#0 196117090#1 196117090#2 196117090#3 196117090#4 196117090#5 196117090#6 196117090#7"/>
    </vehicle>
    <vehicle id="87" depart="43.50">
        <route edges="496978510#1 196117090#0 196117090#1 196117090#2"/>
    </vehicle>
    <vehicle id="88" depart="44.00">
        <route edges="196117090#1 196117090#2 196117090#3 196117090#4 196117090#5"/>
    </vehicle>
    <vehicle id="89" depart="44.50">
        <route edges="196117090#5 196117090#6"/>
    </vehicle>
    <vehicle id="90" depart="45.00">
        <route edges="496978510#0 496978510#1 196117090#0 196117090#1 196117090#2 196117090#3 196117090#4 196117090#5 196117090#6 196117090#7 196117090#8"/>
    </vehicle>
    <vehicle id="91" depart="45.50">
        <route edges="5671359#1 196117090#0 196117090#1"/>
    </vehicle>
    <vehicle id="93" depart="46.50">
        <route edges="5671359#0 5671359#1 196117090#0 196117090#1 196117090#2 196117090#3"/>
    </vehicle>
    <vehicle id="94" depart="47.00">
        <route edges="196117090#2 196117090#3 196117090#4 196117090#5"/>
    </vehicle>
    <vehicle id="99" depart="49.50">
        <route edges="5671359#1 347306313#0 347306313#1"/>
    </vehicle>
    <vehicle id="100" depart="50.00">
        <route edges="5671359#1"/>
    </vehicle>
    <vehicle id="101" depart="50.50">
        <route edges="5671359#0 5671359#1 196117090#0 196117090#1 196117090#2"/>
    </vehicle>
    <vehicle id="106" depart="53.00">
        <route edges="196117090#5"/>
    </vehicle>
    <vehicle id="107" depart="53.50">
        <route edges="5671359#1"/>
    </vehicle>
    <vehicle id="109" depart="54.50">
        <route edges="196117090#2 196117090#3"/>
    </vehicle>
    <vehicle id="110" depart="55.00">
        <route edges="5671359#1 196117090#0 196117090#1 196117090#2 196117090#3 196117090#4 196117090#5 196117090#6 196117090#7"/>
    </vehicle>
    <vehicle id="112" depart="56.00">
        <route edges="196117090#0 196117090#1 196117090#2 196117090#3 196117090#4 196117090#5 196117090#6 196117090#7"/>
    </vehicle>
    <vehicle id="115" depart="57.50">
        <route edges="196117090#1 196117090#2"/>
    </vehicle>
    <vehicle id="116" depart="58.00">
        <route edges="196117090#7 196117090#8"/>
    </vehicle>
    <vehicle id="118" depart="59.00">
        <route edges="5671359#0 5671359#1 196117090#0 196117090#1 196117090#2 196117090#3"/>
    </vehicle>
    <vehicle id="119" depart="59.50">
        <route edges="196117090#7 196117090#8"/>
    </vehicle>
</routes>
